<?xml version='1.0' encoding='UTF-8'?>
<routes xmlns:xsi="http://www.w3.org/2001/XMLSchema-instance" xsi:noNamespaceSchemaLocation="http://sumo.dlr.de/xsd/routes_file.xsd">

    <vType id="normal_car" accel="2.8" decel="4.5" sigma="0.5" length="4.5" minGap="8" maxSpeed="14" color="1,1,0" />
    <vType id="attacker_car" accel="2.4" decel="4.5" sigma="0.5" length="4.5" minGap="8" maxSpeed="14" color="1,0,0" />

    <route id="route_long" edges="173533617 -173533617 407511871#2 407511871#4 407511871#5 299446147#0 299446147#1 299446146 30504121#0 30504123 30504125#2 30504125#3 30504125#4 30504124#1 1316395103#0 1316395103#2 1316395103#3 1316395103#4 1316395103#5 31143758 -1478877708#4 -1478877708#3 -1478877708#2 1478877708#2 -1478877708#2 1478877708#2 -1478877708#2 1478877708#2 -1478877708#2 1478877708#2" />

    
    <vehicle id="0" type="attacker_car" depart="0">
        <route edges="173533586 -173533586 -173533628 120834673#7 120834673#8 120834673#9 1208458140 1208458139 42219504 42219505#0 42219505#1 120834683 42219414 1208458134 46840576 120834710#0 120834710#1 120834710#2 -120834710#2 -120834710#1 120834710#1 120834710#2 -120834710#2 -120834710#1 120834710#1 120834710#2 -120834710#2 -120834710#1 120834710#1 120834710#2 -120834710#2 -120834710#1 120834710#1 120834710#2 -120834710#2 -120834710#1 120834710#1 120834710#2 -120834710#2" />
    </vehicle>
    <vehicle id="1" type="normal_car" depart="4">
        <route edges="378002617#0 378002617#1 378002617#2-AddedOnRampEdge 378002617#2 378002627#0 378002627#1 393840160 1208458146 121139789#0 121139789#1 121139789#2 -121139785#1 -121139785#0 121139787 42219504 1208458138 1208458137 1208458142 1208458136 46771353#0 46771353#1 46771353#2 46771353#3 46771353#4 46771353#5 46771353#8 120834672#0 120834672#1 120802305#1 120802305#2 -174832767 174832767 -174832767 174832767 -174832767 174832767 -174832767 174832767 -174832767 174832767 -174832767 174832767 -174832767 174832767" />
    </vehicle>
    <vehicle id="2" type="normal_car" depart="8">
        <route edges="607733737#1 607733737#2 607733737#3 607733737#4 607733737#5 607733737#6 201527158#0 201527158#1 1312076848 128149675#2 1312073985 46839000#3 46839000#4 46839000#5 46839000#6 46839000#8 46839000#9 46839000#10 46839000#11 46839000#12 46839000#13 46839000#14 46839000#15 46839000#16 1208458143 1208458144 121139790 1208458145 1208458146 121139789#0 121139789#1 121139789#2 -121139785#1 -121139785#0 121139787 42219504 42219505#0 42219505#1 120834683 42219414 1208458134 46840576 120834710#0 120834710#1 120834710#2 -120834710#2 -120834710#1 120834710#1 120834710#2 -120834710#2 -120834710#1 120834710#1 120834710#2 -120834710#2" />
    </vehicle>
    <vehicle id="3" type="normal_car" depart="12">
        <route edges="173533617 -173533617 407511871#2 407511871#4 407511871#5 299446147#0 299446147#1 299446146 30504121#0 30504123 30504125#2 30504125#3 30504125#4 30504124#1 1316395103#0 1316395103#2 1316395103#3 1316395103#4 1316395103#5 31143758 -1478877708#4 -1478877708#3 -1478877708#2 1478877708#2 -1478877708#2 1478877708#2 -1478877708#2 1478877708#2 -1478877708#2 1478877708#2 -1478877708#2 1478877708#2 -1478877708#2 1478877708#2 -1478877708#2 1478877708#2" />
    </vehicle>
    <vehicle id="4" type="attacker_car" depart="16">
        <route edges="-407523529#0 299446147#0 299446147#1 299446146 30504121#0 30504123 30504125#2 30504125#3 30504125#4 30504124#1 1316395103#0 1316395103#2 1316395103#3 1316395103#4 1316395103#5 31143758 31143757#0 31143757#1 31143757#2 -1208458135#3 -1208458135#2 1208458135#2 -1208458135#2 1208458135#2 -1208458135#2 1208458135#2 -1208458135#2 1208458135#2 -1208458135#2 1208458135#2 -1208458135#2 1208458135#2 -1208458135#2 1208458135#2 -1208458135#2 1208458135#2 -1208458135#2 1208458135#2 -1208458135#2 1208458135#2 -1208458135#2 1208458135#2 -1208458135#2 1208458135#2 -1208458135#2 1208458135#2 -1208458135#2 1208458135#2 -1208458135#2" />
    </vehicle>
    <vehicle id="5" type="normal_car" depart="20">
        <route edges="-396559252#4 396559252#4 46839000#3 46839000#4 46839000#5 46839000#6 46839000#8 46839000#9 46839000#10 46839000#11 46839000#12 46839000#13 46839000#14 46839000#15 46839000#16 1208458143 1208458144 121139790 1208458145 1208458146 121139789#0 121139789#1 121139789#2 -121139785#1 -121139785#0 121139787 42219504 42219505#0 42219505#1 120834683 42219414 1208458134 46840576 120834710#0 120834710#1 120834710#2 1321929946 46840577#1 46840577#2 46840577#3 46840577#4 46840577#1 46840577#2 46840577#3 46840577#4 46840577#1 46840577#2 46840577#3 46840577#4 46840577#1 46840577#2 46840577#3 46840577#4" />
    </vehicle>
    <vehicle id="6" type="normal_car" depart="24">
        <route edges="1321929946 46840577#1 46840577#2 46840577#3 170678379 -120834710#2 -120834710#1 -120834710#0 120834676 1208458133 1208458132 1208458131 120834680 42219399 120834691#1 1208458137 1208458142 1208458136 1208458141 1208458140 121139786 121139785#0 121139785#1 121139789#3 121139789#4 121139789#5 121139789#7 121139789#8 121139789#9 121139789#10 121139789#11 121139789#12 121139789#13 121139789#14 121139789#15 121139789#16 608290228#6 -55640912#4 55640912#4 -55640912#4 55640912#4 -55640912#4 55640912#4 -55640912#4 55640912#4 -55640912#4" />
    </vehicle>
    <vehicle id="7" type="normal_car" depart="28">
        <route edges="-120834718#0 120834718#0 120834718#1 120834718#2 120834718#3 42219371 1208458149 1208458153 1208458152 42219490 42219376#1 42219402 1208458136 1208458141 1208458140 121139786 121139785#0 121139785#1 121139789#3 393855913#0 393855913#1 393855913#2 46839000#15 46839000#16 1208458143 1208458144 121139790 393840162 -378002627#1 -378002627#0 378002627#0 -378002627#0 378002627#0 -378002627#0 378002627#0 -378002627#0 378002627#0 -378002627#0" />
    </vehicle>
    <vehicle id="8" type="normal_car" depart="32">
        <route edges="173533586 -173533586 -173533628 120834673#7 120834673#8 120834673#9 1208458140 1208458139 42219504 42219505#0 42219505#1 120834683 42219414 1208458134 46840576 120834710#0 120834710#1 120834710#2 -120834710#2 -120834710#1 120834710#1 120834710#2 -120834710#2 -120834710#1 120834710#1 120834710#2 -120834710#2 -120834710#1 120834710#1 120834710#2 -120834710#2 -120834710#1 120834710#1 120834710#2 -120834710#2 -120834710#1 120834710#1 120834710#2 -120834710#2" />
    </vehicle>
    <vehicle id="9" type="attacker_car" depart="36">
        <route edges="378002617#0 378002617#1 378002617#2-AddedOnRampEdge 378002617#2 378002627#0 378002627#1 393840160 1208458146 121139789#0 121139789#1 121139789#2 -121139785#1 -121139785#0 121139787 42219504 1208458138 1208458137 1208458142 1208458136 46771353#0 46771353#1 46771353#2 46771353#3 46771353#4 46771353#5 46771353#8 120834672#0 120834672#1 120802305#1 120802305#2 -174832767 174832767 -174832767 174832767 -174832767 174832767 -174832767 174832767 -174832767 174832767 -174832767 174832767 -174832767 174832767" />
    </vehicle>
    <vehicle id="10" type="normal_car" depart="40">
        <route edges="607733737#1 607733737#2 607733737#3 607733737#4 607733737#5 607733737#6 201527158#0 201527158#1 1312076848 128149675#2 1312073985 46839000#3 46839000#4 46839000#5 46839000#6 46839000#8 46839000#9 46839000#10 46839000#11 46839000#12 46839000#13 46839000#14 46839000#15 46839000#16 1208458143 1208458144 121139790 1208458145 1208458146 121139789#0 121139789#1 121139789#2 -121139785#1 -121139785#0 121139787 42219504 42219505#0 42219505#1 120834683 42219414 1208458134 46840576 120834710#0 120834710#1 120834710#2 -120834710#2 -120834710#1 120834710#1 120834710#2 -120834710#2 -120834710#1 120834710#1 120834710#2 -120834710#2" />
    </vehicle>
    <vehicle id="11" type="normal_car" depart="44">
        <route edges="173533617 -173533617 407511871#2 407511871#4 407511871#5 299446147#0 299446147#1 299446146 30504121#0 30504123 30504125#2 30504125#3 30504125#4 30504124#1 1316395103#0 1316395103#2 1316395103#3 1316395103#4 1316395103#5 31143758 -1478877708#4 -1478877708#3 -1478877708#2 1478877708#2 -1478877708#2 1478877708#2 -1478877708#2 1478877708#2 -1478877708#2 1478877708#2 -1478877708#2 1478877708#2 -1478877708#2 1478877708#2 -1478877708#2 1478877708#2" />
    </vehicle>
    <vehicle id="12" type="normal_car" depart="48">
        <route edges="-407523529#0 299446147#0 299446147#1 299446146 30504121#0 30504123 30504125#2 30504125#3 30504125#4 30504124#1 1316395103#0 1316395103#2 1316395103#3 1316395103#4 1316395103#5 31143758 31143757#0 31143757#1 31143757#2 -1208458135#3 -1208458135#2 1208458135#2 -1208458135#2 1208458135#2 -1208458135#2 1208458135#2 -1208458135#2 1208458135#2 -1208458135#2 1208458135#2 -1208458135#2 1208458135#2 -1208458135#2 1208458135#2 -1208458135#2 1208458135#2 -1208458135#2 1208458135#2 -1208458135#2 1208458135#2 -1208458135#2 1208458135#2 -1208458135#2 1208458135#2 -1208458135#2 1208458135#2 -1208458135#2 1208458135#2 -1208458135#2" />
    </vehicle>
    <vehicle id="13" type="normal_car" depart="52">
        <route edges="-396559252#4 396559252#4 46839000#3 46839000#4 46839000#5 46839000#6 46839000#8 46839000#9 46839000#10 46839000#11 46839000#12 46839000#13 46839000#14 46839000#15 46839000#16 1208458143 1208458144 121139790 1208458145 1208458146 121139789#0 121139789#1 121139789#2 -121139785#1 -121139785#0 121139787 42219504 42219505#0 42219505#1 120834683 42219414 1208458134 46840576 120834710#0 120834710#1 120834710#2 1321929946 46840577#1 46840577#2 46840577#3 46840577#4 46840577#1 46840577#2 46840577#3 46840577#4 46840577#1 46840577#2 46840577#3 46840577#4 46840577#1 46840577#2 46840577#3 46840577#4" />
    </vehicle>
    <vehicle id="14" type="attacker_car" depart="56">
        <route edges="1321929946 46840577#1 46840577#2 46840577#3 170678379 -120834710#2 -120834710#1 -120834710#0 120834676 1208458133 1208458132 1208458131 120834680 42219399 120834691#1 1208458137 1208458142 1208458136 1208458141 1208458140 121139786 121139785#0 121139785#1 121139789#3 121139789#4 121139789#5 121139789#7 121139789#8 121139789#9 121139789#10 121139789#11 121139789#12 121139789#13 121139789#14 121139789#15 121139789#16 608290228#6 -55640912#4 55640912#4 -55640912#4 55640912#4 -55640912#4 55640912#4 -55640912#4 55640912#4 -55640912#4" />
    </vehicle>
    <vehicle id="15" type="normal_car" depart="60">
        <route edges="-120834718#0 120834718#0 120834718#1 120834718#2 120834718#3 42219371 1208458149 1208458153 1208458152 42219490 42219376#1 42219402 1208458136 1208458141 1208458140 121139786 121139785#0 121139785#1 121139789#3 393855913#0 393855913#1 393855913#2 46839000#15 46839000#16 1208458143 1208458144 121139790 393840162 -378002627#1 -378002627#0 378002627#0 -378002627#0 378002627#0 -378002627#0 378002627#0 -378002627#0 378002627#0 -378002627#0" />
    </vehicle>
    <vehicle id="16" type="normal_car" depart="64">
        <route edges="173533586 -173533586 -173533628 120834673#7 120834673#8 120834673#9 1208458140 1208458139 42219504 42219505#0 42219505#1 120834683 42219414 1208458134 46840576 120834710#0 120834710#1 120834710#2 -120834710#2 -120834710#1 120834710#1 120834710#2 -120834710#2 -120834710#1 120834710#1 120834710#2 -120834710#2 -120834710#1 120834710#1 120834710#2 -120834710#2 -120834710#1 120834710#1 120834710#2 -120834710#2 -120834710#1 120834710#1 120834710#2 -120834710#2" />
    </vehicle>
    <vehicle id="17" type="normal_car" depart="68">
        <route edges="378002617#0 378002617#1 378002617#2-AddedOnRampEdge 378002617#2 378002627#0 378002627#1 393840160 1208458146 121139789#0 121139789#1 121139789#2 -121139785#1 -121139785#0 121139787 42219504 1208458138 1208458137 1208458142 1208458136 46771353#0 46771353#1 46771353#2 46771353#3 46771353#4 46771353#5 46771353#8 120834672#0 120834672#1 120802305#1 120802305#2 -174832767 174832767 -174832767 174832767 -174832767 174832767 -174832767 174832767 -174832767 174832767 -174832767 174832767 -174832767 174832767" />
    </vehicle>
    <vehicle id="18" type="normal_car" depart="72">
        <route edges="607733737#1 607733737#2 607733737#3 607733737#4 607733737#5 607733737#6 201527158#0 201527158#1 1312076848 128149675#2 1312073985 46839000#3 46839000#4 46839000#5 46839000#6 46839000#8 46839000#9 46839000#10 46839000#11 46839000#12 46839000#13 46839000#14 46839000#15 46839000#16 1208458143 1208458144 121139790 1208458145 1208458146 121139789#0 121139789#1 121139789#2 -121139785#1 -121139785#0 121139787 42219504 42219505#0 42219505#1 120834683 42219414 1208458134 46840576 120834710#0 120834710#1 120834710#2 -120834710#2 -120834710#1 120834710#1 120834710#2 -120834710#2 -120834710#1 120834710#1 120834710#2 -120834710#2" />
    </vehicle>
    <vehicle id="19" type="attacker_car" depart="76">
        <route edges="173533617 -173533617 407511871#2 407511871#4 407511871#5 299446147#0 299446147#1 299446146 30504121#0 30504123 30504125#2 30504125#3 30504125#4 30504124#1 1316395103#0 1316395103#2 1316395103#3 1316395103#4 1316395103#5 31143758 -1478877708#4 -1478877708#3 -1478877708#2 1478877708#2 -1478877708#2 1478877708#2 -1478877708#2 1478877708#2 -1478877708#2 1478877708#2 -1478877708#2 1478877708#2 -1478877708#2 1478877708#2 -1478877708#2 1478877708#2" />
    </vehicle>
    <vehicle id="20" type="normal_car" depart="80">
        <route edges="-407523529#0 299446147#0 299446147#1 299446146 30504121#0 30504123 30504125#2 30504125#3 30504125#4 30504124#1 1316395103#0 1316395103#2 1316395103#3 1316395103#4 1316395103#5 31143758 31143757#0 31143757#1 31143757#2 -1208458135#3 -1208458135#2 1208458135#2 -1208458135#2 1208458135#2 -1208458135#2 1208458135#2 -1208458135#2 1208458135#2 -1208458135#2 1208458135#2 -1208458135#2 1208458135#2 -1208458135#2 1208458135#2 -1208458135#2 1208458135#2 -1208458135#2 1208458135#2 -1208458135#2 1208458135#2 -1208458135#2 1208458135#2 -1208458135#2 1208458135#2 -1208458135#2 1208458135#2 -1208458135#2 1208458135#2 -1208458135#2" />
    </vehicle>
    <vehicle id="21" type="normal_car" depart="84">
        <route edges="-396559252#4 396559252#4 46839000#3 46839000#4 46839000#5 46839000#6 46839000#8 46839000#9 46839000#10 46839000#11 46839000#12 46839000#13 46839000#14 46839000#15 46839000#16 1208458143 1208458144 121139790 1208458145 1208458146 121139789#0 121139789#1 121139789#2 -121139785#1 -121139785#0 121139787 42219504 42219505#0 42219505#1 120834683 42219414 1208458134 46840576 120834710#0 120834710#1 120834710#2 1321929946 46840577#1 46840577#2 46840577#3 46840577#4 46840577#1 46840577#2 46840577#3 46840577#4 46840577#1 46840577#2 46840577#3 46840577#4 46840577#1 46840577#2 46840577#3 46840577#4" />
    </vehicle>
    <vehicle id="22" type="normal_car" depart="88">
        <route edges="1321929946 46840577#1 46840577#2 46840577#3 170678379 -120834710#2 -120834710#1 -120834710#0 120834676 1208458133 1208458132 1208458131 120834680 42219399 120834691#1 1208458137 1208458142 1208458136 1208458141 1208458140 121139786 121139785#0 121139785#1 121139789#3 121139789#4 121139789#5 121139789#7 121139789#8 121139789#9 121139789#10 121139789#11 121139789#12 121139789#13 121139789#14 121139789#15 121139789#16 608290228#6 -55640912#4 55640912#4 -55640912#4 55640912#4 -55640912#4 55640912#4 -55640912#4 55640912#4 -55640912#4" />
    </vehicle>
    <vehicle id="23" type="normal_car" depart="92">
        <route edges="-120834718#0 120834718#0 120834718#1 120834718#2 120834718#3 42219371 1208458149 1208458153 1208458152 42219490 42219376#1 42219402 1208458136 1208458141 1208458140 121139786 121139785#0 121139785#1 121139789#3 393855913#0 393855913#1 393855913#2 46839000#15 46839000#16 1208458143 1208458144 121139790 393840162 -378002627#1 -378002627#0 378002627#0 -378002627#0 378002627#0 -378002627#0 378002627#0 -378002627#0 378002627#0 -378002627#0" />
    </vehicle>
    <vehicle id="24" type="normal_car" depart="96">
        <route edges="173533586 -173533586 -173533628 120834673#7 120834673#8 120834673#9 1208458140 1208458139 42219504 42219505#0 42219505#1 120834683 42219414 1208458134 46840576 120834710#0 120834710#1 120834710#2 -120834710#2 -120834710#1 120834710#1 120834710#2 -120834710#2 -120834710#1 120834710#1 120834710#2 -120834710#2 -120834710#1 120834710#1 120834710#2 -120834710#2 -120834710#1 120834710#1 120834710#2 -120834710#2 -120834710#1 120834710#1 120834710#2 -120834710#2" />
    </vehicle>

    
    <vehicle id="25" type="normal_car" depart="75" route="route_long" />
    <vehicle id="26" type="normal_car" depart="79" route="route_long" />
    <vehicle id="27" type="normal_car" depart="83" route="route_long" />
    <vehicle id="28" type="normal_car" depart="87" route="route_long" />
    <vehicle id="29" type="normal_car" depart="91" route="route_long" />
    <vehicle id="30" type="attacker_car" depart="95" route="route_long" />
    <vehicle id="31" type="normal_car" depart="99" route="route_long" />
    <vehicle id="32" type="normal_car" depart="103" route="route_long" />
    <vehicle id="33" type="normal_car" depart="107" route="route_long" />
    <vehicle id="34" type="normal_car" depart="111" route="route_long" />
    <vehicle id="35" type="normal_car" depart="115" route="route_long" />
    <vehicle id="36" type="normal_car" depart="119" route="route_long" />
    <vehicle id="37" type="normal_car" depart="123" route="route_long" />
    <vehicle id="38" type="normal_car" depart="127" route="route_long" />
    <vehicle id="39" type="normal_car" depart="131" route="route_long" />
    <vehicle id="40" type="normal_car" depart="135" route="route_long" />
    <vehicle id="41" type="normal_car" depart="139" route="route_long" />
    <vehicle id="42" type="normal_car" depart="143" route="route_long" />
    <vehicle id="43" type="normal_car" depart="147" route="route_long" />
    <vehicle id="44" type="normal_car" depart="151" route="route_long" />
    <vehicle id="45" type="normal_car" depart="155" route="route_long" />
    <vehicle id="46" type="normal_car" depart="159" route="route_long" />
    <vehicle id="47" type="normal_car" depart="163" route="route_long" />
    <vehicle id="48" type="normal_car" depart="167" route="route_long" />
    <vehicle id="49" type="normal_car" depart="171" route="route_long" />

    
    <vehicle id="50" type="normal_car" depart="150" route="route_long" />
    <vehicle id="51" type="normal_car" depart="154" route="route_long" />
    <vehicle id="52" type="normal_car" depart="158" route="route_long" />
    <vehicle id="53" type="normal_car" depart="162" route="route_long" />
    <vehicle id="54" type="normal_car" depart="166" route="route_long" />
    <vehicle id="55" type="normal_car" depart="170" route="route_long" />
    <vehicle id="56" type="normal_car" depart="174" route="route_long" />
    <vehicle id="57" type="normal_car" depart="178" route="route_long" />
    <vehicle id="58" type="attacker_car" depart="182" route="route_long" />
    <vehicle id="59" type="normal_car" depart="186" route="route_long" />
    <vehicle id="60" type="normal_car" depart="190" route="route_long" />
    <vehicle id="61" type="normal_car" depart="194" route="route_long" />
    <vehicle id="62" type="attacker_car" depart="198" route="route_long" />
    <vehicle id="63" type="normal_car" depart="202" route="route_long" />
    <vehicle id="64" type="normal_car" depart="206" route="route_long" />
    <vehicle id="65" type="normal_car" depart="210" route="route_long" />
    <vehicle id="66" type="normal_car" depart="214" route="route_long" />
    <vehicle id="67" type="attacker_car" depart="218" route="route_long" />
    <vehicle id="68" type="normal_car" depart="222" route="route_long" />
    <vehicle id="69" type="normal_car" depart="226" route="route_long" />
    <vehicle id="70" type="attacker_car" depart="230" route="route_long" />
    <vehicle id="71" type="normal_car" depart="234" route="route_long" />
    <vehicle id="72" type="attacker_car" depart="238" route="route_long" />
    <vehicle id="73" type="normal_car" depart="242" route="route_long" />
    <vehicle id="74" type="normal_car" depart="246" route="route_long" />

</routes>