[General]
network = networkprojectvanet.simulations.grayhole.Scenario

# ============================================
# LOG
# ============================================
#**.cmdenv-log-level = off
cmdenv-express-mode = true
#cmdenv-express-mode = false
##cmdenv-output-file = results/debug_log.txt
cmdenv-status-frequency = 0s
#*.attacker_car[*].routing.cmdenv-log-level = warn

# ============================================
# CONFIGURAZIONE RETE
# ============================================
sim-time-limit = 300s
warmup-period = 10s
repeat = 50
seed-set = ${repetition}

*.*_car[*].ipv4.arp.typename = "Arp"

*.attacker_car[*].trustManager.enableDistributedTrust = false

# ============================================
# CRITICAL: IP E ROUTING CONFIGURATION
# ============================================
*.normal_car[*].ipv4.ip.forwarding = true
*.normal_car[*].ipv4.ip.procDelay = 0s
*.attacker_car[*].ipv4.ip.forwarding = true
*.attacker_car[*].ipv4.ip.procDelay = 0s

# ============================================
# CRITICAL: Disabilita rotte automatiche
# ============================================
*.normal_car[*].ipv4.routingTable.routingFile = ""
*.normal_car[*].ipv4.routingTable.netmaskRoutes = ""
*.normal_car[*].ipv4.configurator.addDefaultRoutes = false
*.normal_car[*].ipv4.configurator.addStaticRoutes = false
*.normal_car[*].ipv4.configurator.addSubnetRoutes = false

*.attacker_car[*].ipv4.routingTable.routingFile = ""
*.attacker_car[*].ipv4.routingTable.netmaskRoutes = ""
*.attacker_car[*].ipv4.configurator.addDefaultRoutes = false
*.attacker_car[*].ipv4.configurator.addStaticRoutes = false
*.attacker_car[*].ipv4.configurator.addSubnetRoutes = false

# ============================================
# CRITICAL: AODV CONFIGURATION  valori ridotti
# ============================================
*.normal_car[*].routing.useHelloMessages = true
*.normal_car[*].routing.maxQueuedPackets = 100
*.normal_car[*].routing.maxQueueTime = 60s
*.normal_car[*].routing.activeRouteTimeout = 5s
*.normal_car[*].routing.helloInterval = 2s
*.normal_car[*].routing.allowedHelloLoss = 3
*.normal_car[*].routing.netDiameter = 35
*.normal_car[*].routing.rreqRetries = 2
*.normal_car[*].routing.rreqRatelimit = 10
*.normal_car[*].routing.destinationOnlyFlag = false


*.normal_car[*].routing.warmupPacketLimit = 15    # era 30
*.attacker_car[*].routing.warmupPacketLimit = 15

*.attacker_car[*].routing.useHelloMessages = true
*.attacker_car[*].routing.maxQueuedPackets = 20
*.attacker_car[*].routing.maxQueueTime = 60s
*.attacker_car[*].routing.activeRouteTimeout = 5s
*.attacker_car[*].routing.helloInterval = 2s
*.attacker_car[*].routing.allowedHelloLoss = 3
*.attacker_car[*].routing.netDiameter = 35
*.attacker_car[*].routing.rreqRetries = 2
*.attacker_car[*].routing.rreqRatelimit = 10
*.attacker_car[*].routing.destinationOnlyFlag = false

# ============================================
# TRUST MANAGER PARAMETERS
# ============================================
*.normal_car[*].trustManager.trustThreshold = 0.5
*.normal_car[*].trustManager.initialTrust = 1.0

*.normal_car[*].trustManager.enableDistributedTrust = true
*.attacker_car[*].trustManager.enableDistributedTrust = true
*.attacker_car[*].trustManager.trustThreshold = 1


# TrustMonitor
*.normal_car[*].trustMonitor.forwardingWindowDuration = 5s
*.normal_car[*].trustMonitor.hopCountTimeout = 4s
*.normal_car[*].trustMonitor.warmupDuration = 10.0

# ============================================
# WIRELESS INTERFACE
# ============================================
*.*_car[*].wlan[*].typename = "WirelessInterface"
*.*_car[*].wlan[*].mac.typename = "CsmaCaMac"
*.*_car[*].wlan[*].mac.useAck = false
*.*_car[*].wlan[*].mac.headerLength = 23B
*.*_car[*].wlan[*].mac.bitrate = 2Mbps
*.*_car[*].wlan[*].radio.transmitter.bitrate = 2Mbps
*.*_car[*].wlan[*].radio.typename = "UnitDiskRadio"
*.*_car[*].wlan[*].radio.transmitter.headerLength = 96b
*.*_car[*].wlan[*].radio.transmitter.communicationRange = 400m
*.*_car[*].wlan[*].radio.transmitter.interferenceRange = 0m
*.*_car[*].wlan[*].radio.transmitter.detectionRange = 0m
*.*_car[*].wlan[*].radio.receiver.ignoreInterference = true

# ============================================
# HOST AUTO CONFIGURATOR
# ============================================
*.*_car[*].ipv4.configurator.typename = "HostAutoConfigurator"
*.*_car[*].ipv4.configurator.interfaces = "wlan0"
*.*_car[*].ipv4.configurator.mcastGroups = "224.0.0.1"

# ============================================
# APPLICAZIONI UDP  default: tutti ascoltano
# Le coppie mittente/destinatario sono definite
# nei singoli [Config] per ogni scenario.
# ============================================
*.normal_car[*].numApps = 1
*.normal_car[*].app[0].typename = "UdpSink"
*.normal_car[*].app[0].localPort = 5000
*.normal_car[*].routing.deletePeriod = 5s

*.attacker_car[*].numApps = 1
*.attacker_car[*].app[0].typename = "UdpSink"
*.attacker_car[*].app[0].localPort = 5000
*.attacker_car[*].routing.deletePeriod = 5s

# ============================================
# MOBILITY
# ============================================
*.*_car[*].mobility.typename = "VeinsInetMobility"

# ============================================
# VEINS INET MANAGER
# ============================================
*.manager.updateInterval = 0.1s

# ============================================
# VISUALIZATION
# ============================================
*.visualizer.networkRouteVisualizer.displayRoutes = true
*.*_car[*].wlan[0].radio.displayCommunicationRange = true

# ============================================
# STATISTICHE
# ============================================
**.vector-recording = false
**.scalar-recording = true
**.wlan[*].*.scalar-recording = false
**.radioMedium.*.scalar-recording = false
**.mobility.*.scalar-recording = false


# Opzionale: se usi i vettori per i grafici nel tempo
*.normal_car[*].app[*].vector-recording = true

*.normal_car[*].app[*].scalar-recording = true
*.attacker_car[*].app[*].scalar-recording = true

**.trustManager.detectionTP.result-recording-modes = +sum
**.trustManager.detectionFP.result-recording-modes = +sum
**.trustManager.detectionFN.result-recording-modes = +sum
**.trustManager.detectionTN.result-recording-modes = +sum

**.mitigationManager.blacklistTP.result-recording-modes = +sum
**.mitigationManager.blacklistFP.result-recording-modes = +sum
**.mitigationManager.blacklistFN.result-recording-modes = +sum

# noattack: 25 normali, 24 sorgenti, 47 flussi
# 8pct: 23 normali, 22 sorgenti, 43 flussi
# 15pct: 21 normali, 20 sorgenti, 39 flussi
# 30pct: 18 normali, 17 sorgenti, 33 flussi
# 40pct: 15 normali, 14 sorgenti, 27 flussi
# 50pct: 12 normali, 11 sorgenti, 21 flussi
# 60pct: 10 normali, 9 sorgenti, 17 flussi
#

# ============================================================
# SCENARIO 1 -  8pct
# ============================================================


[Config S1_NoAttack_Small_8pct]
description = "Baseline AODV puro - Small (25 nodi)"
*.manager.launchConfig = xmldoc("arcavacatamap_small_8pct.launchd.xml")
*.manager.moduleType = "normal_car=networkprojectvanet.veins_inet.AodvCar slow_car=networkprojectvanet.veins_inet.AodvCar *=networkprojectvanet.veins_inet.AodvCar"
*.manager.moduleName = "normal_car=normal_car slow_car=normal_car *=normal_car"
*.manager.moduleDisplayString = "normal_car='i=veins/node/car;is=vs' slow_car='i=veins/node/car;is=vs' *='i=veins/node/car;is=vs'"



*.normal_car[*].app[1].typename = "UdpBasicApp"
*.normal_car[*].app[1].localPort = 5001
*.normal_car[*].app[1].destPort = 5000
*.normal_car[*].app[1].messageLength = 512B
*.normal_car[*].app[1].sendInterval = 0.5s
*.normal_car[*].app[1].packetName = "UDPData"

*.normal_car[*].app[2].typename = "UdpBasicApp"
*.normal_car[*].app[2].localPort = 5002
*.normal_car[*].app[2].destPort = 5000
*.normal_car[*].app[2].messageLength = 512B
*.normal_car[*].app[2].sendInterval = 0.5s
*.normal_car[*].app[2].packetName = "UDPData"

*.normal_car[1].numApps = 2
*.normal_car[1].app[1].destAddresses = "normal_car[0]"
*.normal_car[1].app[1].startTime = 15s

*.normal_car[2].numApps = 3
*.normal_car[2].app[1].destAddresses = "normal_car[1]"
*.normal_car[2].app[1].startTime = 18s
*.normal_car[2].app[2].destAddresses = "normal_car[0]"
*.normal_car[2].app[2].startTime = 21s

*.normal_car[3].numApps = 3
*.normal_car[3].app[1].destAddresses = "normal_car[2]"
*.normal_car[3].app[1].startTime = 24s
*.normal_car[3].app[2].destAddresses = "normal_car[1]"
*.normal_car[3].app[2].startTime = 27s

*.normal_car[4].numApps = 3
*.normal_car[4].app[1].destAddresses = "normal_car[3]"
*.normal_car[4].app[1].startTime = 30s
*.normal_car[4].app[2].destAddresses = "normal_car[2]"
*.normal_car[4].app[2].startTime = 33s

*.normal_car[5].numApps = 3
*.normal_car[5].app[1].destAddresses = "normal_car[4]"
*.normal_car[5].app[1].startTime = 36s
*.normal_car[5].app[2].destAddresses = "normal_car[2]"
*.normal_car[5].app[2].startTime = 39s

*.normal_car[6].numApps = 3
*.normal_car[6].app[1].destAddresses = "normal_car[5]"
*.normal_car[6].app[1].startTime = 42s
*.normal_car[6].app[2].destAddresses = "normal_car[3]"
*.normal_car[6].app[2].startTime = 45s

*.normal_car[7].numApps = 3
*.normal_car[7].app[1].destAddresses = "normal_car[6]"
*.normal_car[7].app[1].startTime = 48s
*.normal_car[7].app[2].destAddresses = "normal_car[3]"
*.normal_car[7].app[2].startTime = 51s

*.normal_car[8].numApps = 3
*.normal_car[8].app[1].destAddresses = "normal_car[7]"
*.normal_car[8].app[1].startTime = 54s
*.normal_car[8].app[2].destAddresses = "normal_car[4]"
*.normal_car[8].app[2].startTime = 57s

*.normal_car[9].numApps = 3
*.normal_car[9].app[1].destAddresses = "normal_car[8]"
*.normal_car[9].app[1].startTime = 60s
*.normal_car[9].app[2].destAddresses = "normal_car[4]"
*.normal_car[9].app[2].startTime = 63s

*.normal_car[10].numApps = 3
*.normal_car[10].app[1].destAddresses = "normal_car[9]"
*.normal_car[10].app[1].startTime = 66s
*.normal_car[10].app[2].destAddresses = "normal_car[5]"
*.normal_car[10].app[2].startTime = 69s

*.normal_car[11].numApps = 3
*.normal_car[11].app[1].destAddresses = "normal_car[10]"
*.normal_car[11].app[1].startTime = 72s
*.normal_car[11].app[2].destAddresses = "normal_car[5]"
*.normal_car[11].app[2].startTime = 75s

*.normal_car[12].numApps = 3
*.normal_car[12].app[1].destAddresses = "normal_car[11]"
*.normal_car[12].app[1].startTime = 78s
*.normal_car[12].app[2].destAddresses = "normal_car[6]"
*.normal_car[12].app[2].startTime = 81s



*.normal_car[14].numApps = 3
*.normal_car[14].app[1].destAddresses = "normal_car[11]"
*.normal_car[14].app[1].startTime = 90s
*.normal_car[14].app[2].destAddresses = "normal_car[10]"
*.normal_car[14].app[2].startTime = 93s

*.normal_car[15].numApps = 3
*.normal_car[15].app[1].destAddresses = "normal_car[14]"
*.normal_car[15].app[1].startTime = 96s
*.normal_car[15].app[2].destAddresses = "normal_car[7]"
*.normal_car[15].app[2].startTime = 99s

*.normal_car[16].numApps = 3
*.normal_car[16].app[1].destAddresses = "normal_car[15]"
*.normal_car[16].app[1].startTime = 102s
*.normal_car[16].app[2].destAddresses = "normal_car[8]"
*.normal_car[16].app[2].startTime = 105s


*.normal_car[18].numApps = 3
*.normal_car[18].app[1].destAddresses = "normal_car[16]"
*.normal_car[18].app[1].startTime = 114s
*.normal_car[18].app[2].destAddresses = "normal_car[9]"
*.normal_car[18].app[2].startTime = 117s

*.normal_car[19].numApps = 3
*.normal_car[19].app[1].destAddresses = "normal_car[16]"
*.normal_car[19].app[1].startTime = 120s
*.normal_car[19].app[2].destAddresses = "normal_car[9]"
*.normal_car[19].app[2].startTime = 123s

*.normal_car[20].numApps = 3
*.normal_car[20].app[1].destAddresses = "normal_car[16]"
*.normal_car[20].app[1].startTime = 126s
*.normal_car[20].app[2].destAddresses = "normal_car[10]"
*.normal_car[20].app[2].startTime = 129s

*.normal_car[21].numApps = 3
*.normal_car[21].app[1].destAddresses = "normal_car[16]"
*.normal_car[21].app[1].startTime = 132s
*.normal_car[21].app[2].destAddresses = "normal_car[10]"
*.normal_car[21].app[2].startTime = 135s

*.normal_car[22].numApps = 3
*.normal_car[22].app[1].destAddresses = "normal_car[16]"
*.normal_car[22].app[1].startTime = 138s
*.normal_car[22].app[2].destAddresses = "normal_car[11]"
*.normal_car[22].app[2].startTime = 141s

# Default: tutti gli altri ascoltano
*.normal_car[*].numApps = 1
*.normal_car[*].app[0].typename = "UdpSink"
*.normal_car[*].app[0].localPort = 5000
*.normal_car[*].routing.deletePeriod = 5s
 


#--------------------------------------------------------------------------------------------------------------------------------------------------------




[Config S1_NoAttack_Small_15pct]
description = "Baseline AODV puro - Small (25 nodi)"
*.manager.launchConfig = xmldoc("arcavacatamap_small_15pct.launchd.xml")
*.manager.moduleType = "normal_car=networkprojectvanet.veins_inet.AodvCar slow_car=networkprojectvanet.veins_inet.AodvCar *=networkprojectvanet.veins_inet.AodvCar"
*.manager.moduleName = "normal_car=normal_car slow_car=normal_car *=normal_car"
*.manager.moduleDisplayString = "normal_car='i=veins/node/car;is=vs' slow_car='i=veins/node/car;is=vs' *='i=veins/node/car;is=vs'"


*.normal_car[*].app[1].typename = "UdpBasicApp"
*.normal_car[*].app[1].localPort = 5001
*.normal_car[*].app[1].destPort = 5000
*.normal_car[*].app[1].messageLength = 512B
*.normal_car[*].app[1].sendInterval = 0.5s
*.normal_car[*].app[1].packetName = "UDPData"

*.normal_car[*].app[2].typename = "UdpBasicApp"
*.normal_car[*].app[2].localPort = 5002
*.normal_car[*].app[2].destPort = 5000
*.normal_car[*].app[2].messageLength = 512B
*.normal_car[*].app[2].sendInterval = 0.5s
*.normal_car[*].app[2].packetName = "UDPData"

*.normal_car[1].numApps = 2
*.normal_car[1].app[1].destAddresses = "normal_car[0]"
*.normal_car[1].app[1].startTime = 15s

*.normal_car[2].numApps = 3
*.normal_car[2].app[1].destAddresses = "normal_car[1]"
*.normal_car[2].app[1].startTime = 18s
*.normal_car[2].app[2].destAddresses = "normal_car[0]"
*.normal_car[2].app[2].startTime = 21s

*.normal_car[3].numApps = 3
*.normal_car[3].app[1].destAddresses = "normal_car[2]"
*.normal_car[3].app[1].startTime = 24s
*.normal_car[3].app[2].destAddresses = "normal_car[1]"
*.normal_car[3].app[2].startTime = 27s

*.normal_car[4].numApps = 3
*.normal_car[4].app[1].destAddresses = "normal_car[3]"
*.normal_car[4].app[1].startTime = 30s
*.normal_car[4].app[2].destAddresses = "normal_car[2]"
*.normal_car[4].app[2].startTime = 33s

*.normal_car[5].numApps = 3
*.normal_car[5].app[1].destAddresses = "normal_car[4]"
*.normal_car[5].app[1].startTime = 36s
*.normal_car[5].app[2].destAddresses = "normal_car[2]"
*.normal_car[5].app[2].startTime = 39s

*.normal_car[6].numApps = 3
*.normal_car[6].app[1].destAddresses = "normal_car[5]"
*.normal_car[6].app[1].startTime = 42s
*.normal_car[6].app[2].destAddresses = "normal_car[3]"
*.normal_car[6].app[2].startTime = 45s

*.normal_car[7].numApps = 3
*.normal_car[7].app[1].destAddresses = "normal_car[6]"
*.normal_car[7].app[1].startTime = 48s
*.normal_car[7].app[2].destAddresses = "normal_car[3]"
*.normal_car[7].app[2].startTime = 51s

*.normal_car[8].numApps = 3
*.normal_car[8].app[1].destAddresses = "normal_car[7]"
*.normal_car[8].app[1].startTime = 54s
*.normal_car[8].app[2].destAddresses = "normal_car[4]"
*.normal_car[8].app[2].startTime = 57s

*.normal_car[9].numApps = 3
*.normal_car[9].app[1].destAddresses = "normal_car[8]"
*.normal_car[9].app[1].startTime = 60s
*.normal_car[9].app[2].destAddresses = "normal_car[4]"
*.normal_car[9].app[2].startTime = 63s

*.normal_car[10].numApps = 3
*.normal_car[10].app[1].destAddresses = "normal_car[9]"
*.normal_car[10].app[1].startTime = 66s
*.normal_car[10].app[2].destAddresses = "normal_car[5]"
*.normal_car[10].app[2].startTime = 69s

*.normal_car[11].numApps = 3
*.normal_car[11].app[1].destAddresses = "normal_car[10]"
*.normal_car[11].app[1].startTime = 72s
*.normal_car[11].app[2].destAddresses = "normal_car[5]"
*.normal_car[11].app[2].startTime = 75s


*.normal_car[14].numApps = 3
*.normal_car[14].app[1].destAddresses = "normal_car[10]"
*.normal_car[14].app[1].startTime = 90s
*.normal_car[14].app[2].destAddresses = "normal_car[7]"
*.normal_car[14].app[2].startTime = 93s

*.normal_car[15].numApps = 3
*.normal_car[15].app[1].destAddresses = "normal_car[10]"
*.normal_car[15].app[1].startTime = 96s
*.normal_car[15].app[2].destAddresses = "normal_car[7]"
*.normal_car[15].app[2].startTime = 99s

*.normal_car[16].numApps = 3
*.normal_car[16].app[1].destAddresses = "normal_car[10]"
*.normal_car[16].app[1].startTime = 102s
*.normal_car[16].app[2].destAddresses = "normal_car[8]"
*.normal_car[16].app[2].startTime = 105s



*.normal_car[19].numApps = 3
*.normal_car[19].app[1].destAddresses = "normal_car[10]"
*.normal_car[19].app[1].startTime = 120s
*.normal_car[19].app[2].destAddresses = "normal_car[9]"
*.normal_car[19].app[2].startTime = 123s

*.normal_car[20].numApps = 3
*.normal_car[20].app[1].destAddresses = "normal_car[14]"
*.normal_car[20].app[1].startTime = 126s
*.normal_car[20].app[2].destAddresses = "normal_car[10]"
*.normal_car[20].app[2].startTime = 129s


# Default: tutti gli altri ascoltano
*.normal_car[*].numApps = 1
*.normal_car[*].app[0].typename = "UdpSink"
*.normal_car[*].app[0].localPort = 5000
*.normal_car[*].routing.deletePeriod = 5s
 

 
# ============================================================
# SCENARIO 2 - ATTACK GRAYHOLE PURO - 30pct
# ============================================================
[Config S1_NoAttack_Small_30pct]
description = "Baseline AODV puro - Small (25 nodi)"
*.manager.launchConfig = xmldoc("arcavacatamap_small_30pct.launchd.xml")
*.manager.moduleType = "normal_car=networkprojectvanet.veins_inet.AodvCar slow_car=networkprojectvanet.veins_inet.AodvCar *=networkprojectvanet.veins_inet.AodvCar"
*.manager.moduleName = "normal_car=normal_car slow_car=normal_car *=normal_car"
*.manager.moduleDisplayString = "normal_car='i=veins/node/car;is=vs' slow_car='i=veins/node/car;is=vs' *='i=veins/node/car;is=vs'"



*.normal_car[*].app[1].typename = "UdpBasicApp"
*.normal_car[*].app[1].localPort = 5001
*.normal_car[*].app[1].destPort = 5000
*.normal_car[*].app[1].messageLength = 512B
*.normal_car[*].app[1].sendInterval = 0.5s
*.normal_car[*].app[1].packetName = "UDPData"

*.normal_car[*].app[2].typename = "UdpBasicApp"
*.normal_car[*].app[2].localPort = 5002
*.normal_car[*].app[2].destPort = 5000
*.normal_car[*].app[2].messageLength = 512B
*.normal_car[*].app[2].sendInterval = 0.5s
*.normal_car[*].app[2].packetName = "UDPData"

*.normal_car[1].numApps = 2
*.normal_car[1].app[1].destAddresses = "normal_car[0]"
*.normal_car[1].app[1].startTime = 15s

*.normal_car[2].numApps = 3
*.normal_car[2].app[1].destAddresses = "normal_car[1]"
*.normal_car[2].app[1].startTime = 18s
*.normal_car[2].app[2].destAddresses = "normal_car[0]"
*.normal_car[2].app[2].startTime = 21s

*.normal_car[3].numApps = 3
*.normal_car[3].app[1].destAddresses = "normal_car[2]"
*.normal_car[3].app[1].startTime = 24s
*.normal_car[3].app[2].destAddresses = "normal_car[1]"
*.normal_car[3].app[2].startTime = 27s

*.normal_car[4].numApps = 3
*.normal_car[4].app[1].destAddresses = "normal_car[3]"
*.normal_car[4].app[1].startTime = 30s
*.normal_car[4].app[2].destAddresses = "normal_car[2]"
*.normal_car[4].app[2].startTime = 33s

*.normal_car[5].numApps = 3
*.normal_car[5].app[1].destAddresses = "normal_car[4]"
*.normal_car[5].app[1].startTime = 36s
*.normal_car[5].app[2].destAddresses = "normal_car[2]"
*.normal_car[5].app[2].startTime = 39s



*.normal_car[8].numApps = 3
*.normal_car[8].app[1].destAddresses = "normal_car[2]"
*.normal_car[8].app[1].startTime = 54s
*.normal_car[8].app[2].destAddresses = "normal_car[4]"
*.normal_car[8].app[2].startTime = 57s

*.normal_car[9].numApps = 3
*.normal_car[9].app[1].destAddresses = "normal_car[8]"
*.normal_car[9].app[1].startTime = 60s
*.normal_car[9].app[2].destAddresses = "normal_car[4]"
*.normal_car[9].app[2].startTime = 63s

*.normal_car[10].numApps = 3
*.normal_car[10].app[1].destAddresses = "normal_car[9]"
*.normal_car[10].app[1].startTime = 66s
*.normal_car[10].app[2].destAddresses = "normal_car[5]"
*.normal_car[10].app[2].startTime = 69s

*.normal_car[11].numApps = 3
*.normal_car[11].app[1].destAddresses = "normal_car[10]"
*.normal_car[11].app[1].startTime = 72s
*.normal_car[11].app[2].destAddresses = "normal_car[5]"
*.normal_car[11].app[2].startTime = 75s



*.normal_car[14].numApps = 3
*.normal_car[14].app[1].destAddresses = "normal_car[9]"
*.normal_car[14].app[1].startTime = 90s
*.normal_car[14].app[2].destAddresses = "normal_car[5]"
*.normal_car[14].app[2].startTime = 93s

*.normal_car[15].numApps = 3
*.normal_car[15].app[1].destAddresses = "normal_car[9]"
*.normal_car[15].app[1].startTime = 96s
*.normal_car[15].app[2].destAddresses = "normal_car[11]"
*.normal_car[15].app[2].startTime = 99s

*.normal_car[16].numApps = 3
*.normal_car[16].app[1].destAddresses = "normal_car[9]"
*.normal_car[16].app[1].startTime = 102s
*.normal_car[16].app[2].destAddresses = "normal_car[8]"
*.normal_car[16].app[2].startTime = 105s

*.normal_car[19].numApps = 3
*.normal_car[19].app[1].destAddresses = "normal_car[15]"
*.normal_car[19].app[1].startTime = 102s
*.normal_car[19].app[2].destAddresses = "normal_car[11]"
*.normal_car[19].app[2].startTime = 105s

*.normal_car[20].numApps = 3
*.normal_car[20].app[1].destAddresses = "normal_car[11]"
*.normal_car[20].app[1].startTime = 102s
*.normal_car[20].app[2].destAddresses = "normal_car[16]"
*.normal_car[20].app[2].startTime = 105s

*.normal_car[21].numApps = 3
*.normal_car[21].app[1].destAddresses = "normal_car[15]"
*.normal_car[21].app[1].startTime = 102s
*.normal_car[21].app[2].destAddresses = "normal_car[16]"
*.normal_car[21].app[2].startTime = 105s

*.normal_car[23].numApps = 3
*.normal_car[23].app[1].destAddresses = "normal_car[19]"
*.normal_car[23].app[1].startTime = 102s
*.normal_car[23].app[2].destAddresses = "normal_car[15]"
*.normal_car[23].app[2].startTime = 105s

*.normal_car[24].numApps = 3
*.normal_car[24].app[1].destAddresses = "normal_car[20]"
*.normal_car[24].app[1].startTime = 102s
*.normal_car[24].app[2].destAddresses = "normal_car[16]"
*.normal_car[24].app[2].startTime = 105s
# Default: tutti gli altri ascoltano
*.normal_car[*].numApps = 1
*.normal_car[*].app[0].typename = "UdpSink"
*.normal_car[*].app[0].localPort = 5000
*.normal_car[*].routing.deletePeriod = 5s
 

# ============================================================
# SCENARIO 2 - ATTACK GRAYHOLE PURO - 40pct
# ============================================================

[Config S1_NoAttack_Small_40pct]
description = "Baseline AODV puro - Small (25 nodi)"
*.manager.launchConfig = xmldoc("arcavacatamap_small_40pct.launchd.xml")
*.manager.moduleType = "normal_car=networkprojectvanet.veins_inet.AodvCar slow_car=networkprojectvanet.veins_inet.AodvCar *=networkprojectvanet.veins_inet.AodvCar"
*.manager.moduleName = "normal_car=normal_car slow_car=normal_car *=normal_car"
*.manager.moduleDisplayString = "normal_car='i=veins/node/car;is=vs' slow_car='i=veins/node/car;is=vs' *='i=veins/node/car;is=vs'"


*.normal_car[*].app[1].typename = "UdpBasicApp"
*.normal_car[*].app[1].localPort = 5001
*.normal_car[*].app[1].destPort = 5000
*.normal_car[*].app[1].messageLength = 512B
*.normal_car[*].app[1].sendInterval = 0.5s
*.normal_car[*].app[1].packetName = "UDPData"

*.normal_car[*].app[2].typename = "UdpBasicApp"
*.normal_car[*].app[2].localPort = 5002
*.normal_car[*].app[2].destPort = 5000
*.normal_car[*].app[2].messageLength = 512B
*.normal_car[*].app[2].sendInterval = 0.5s
*.normal_car[*].app[2].packetName = "UDPData"
*.normal_car[1].numApps = 2
*.normal_car[1].app[1].destAddresses = "normal_car[0]"
*.normal_car[1].app[1].startTime = 15s

*.normal_car[2].numApps = 3
*.normal_car[2].app[1].destAddresses = "normal_car[1]"
*.normal_car[2].app[1].startTime = 18s
*.normal_car[2].app[2].destAddresses = "normal_car[0]"
*.normal_car[2].app[2].startTime = 21s

*.normal_car[3].numApps = 3
*.normal_car[3].app[1].destAddresses = "normal_car[2]"
*.normal_car[3].app[1].startTime = 24s
*.normal_car[3].app[2].destAddresses = "normal_car[1]"
*.normal_car[3].app[2].startTime = 27s

*.normal_car[4].numApps = 3
*.normal_car[4].app[1].destAddresses = "normal_car[3]"
*.normal_car[4].app[1].startTime = 30s
*.normal_car[4].app[2].destAddresses = "normal_car[2]"
*.normal_car[4].app[2].startTime = 33s


*.normal_car[8].numApps = 3
*.normal_car[8].app[1].destAddresses = "normal_car[3]"
*.normal_car[8].app[1].startTime = 54s
*.normal_car[8].app[2].destAddresses = "normal_car[1]"
*.normal_car[8].app[2].startTime = 57s

*.normal_car[9].numApps = 3
*.normal_car[9].app[1].destAddresses = "normal_car[2]"
*.normal_car[9].app[1].startTime = 60s
*.normal_car[9].app[2].destAddresses = "normal_car[4]"
*.normal_car[9].app[2].startTime = 63s

*.normal_car[10].numApps = 3
*.normal_car[10].app[1].destAddresses = "normal_car[4]"
*.normal_car[10].app[1].startTime = 66s
*.normal_car[10].app[2].destAddresses = "normal_car[2]"
*.normal_car[10].app[2].startTime = 69s


*.normal_car[14].numApps = 3
*.normal_car[14].app[1].destAddresses = "normal_car[8]"
*.normal_car[14].app[1].startTime = 90s
*.normal_car[14].app[2].destAddresses = "normal_car[9]"
*.normal_car[14].app[2].startTime = 93s

*.normal_car[15].numApps = 3
*.normal_car[15].app[1].destAddresses = "normal_car[10]"
*.normal_car[15].app[1].startTime = 90s
*.normal_car[15].app[2].destAddresses = "normal_car[9]"
*.normal_car[15].app[2].startTime = 93s

*.normal_car[16].numApps = 3
*.normal_car[16].app[1].destAddresses = "normal_car[10]"
*.normal_car[16].app[1].startTime = 90s
*.normal_car[16].app[2].destAddresses = "normal_car[9]"
*.normal_car[16].app[2].startTime = 93s

*.normal_car[19].numApps = 3
*.normal_car[19].app[1].destAddresses = "normal_car[10]"
*.normal_car[19].app[1].startTime = 90s
*.normal_car[19].app[2].destAddresses = "normal_car[14]"
*.normal_car[19].app[2].startTime = 93s

*.normal_car[20].numApps = 3
*.normal_car[20].app[1].destAddresses = "normal_car[16]"
*.normal_car[20].app[1].startTime = 90s
*.normal_car[20].app[2].destAddresses = "normal_car[15]"
*.normal_car[20].app[2].startTime = 93s

*.normal_car[23].numApps = 3
*.normal_car[23].app[1].destAddresses = "normal_car[16]"
*.normal_car[23].app[1].startTime = 102s
*.normal_car[23].app[2].destAddresses = "normal_car[19]"
*.normal_car[23].app[2].startTime = 105s

*.normal_car[24].numApps = 3
*.normal_car[24].app[1].destAddresses = "normal_car[16]"
*.normal_car[24].app[1].startTime = 102s
*.normal_car[24].app[2].destAddresses = "normal_car[19]"
*.normal_car[24].app[2].startTime = 105s

# Default: tutti gli altri ascoltano
*.normal_car[*].numApps = 1
*.normal_car[*].app[0].typename = "UdpSink"
*.normal_car[*].app[0].localPort = 5000
*.normal_car[*].routing.deletePeriod = 5s
 

 
# ============================================================
# SCENARIO 2 - ATTACK GRAYHOLE PURO - 50pct
# ============================================================

[Config S1_NoAttack_Small_50pct]
description = "Baseline AODV puro - Small (25 nodi)"
*.manager.launchConfig = xmldoc("arcavacatamap_small_50pct.launchd.xml")
*.manager.moduleType = "normal_car=networkprojectvanet.veins_inet.AodvCar slow_car=networkprojectvanet.veins_inet.AodvCar *=networkprojectvanet.veins_inet.AodvCar"
*.manager.moduleName = "normal_car=normal_car slow_car=normal_car *=normal_car"
*.manager.moduleDisplayString = "normal_car='i=veins/node/car;is=vs' slow_car='i=veins/node/car;is=vs' *='i=veins/node/car;is=vs'"



*.normal_car[*].app[1].typename = "UdpBasicApp"
*.normal_car[*].app[1].localPort = 5001
*.normal_car[*].app[1].destPort = 5000
*.normal_car[*].app[1].messageLength = 512B
*.normal_car[*].app[1].sendInterval = 0.5s
*.normal_car[*].app[1].packetName = "UDPData"

*.normal_car[*].app[2].typename = "UdpBasicApp"
*.normal_car[*].app[2].localPort = 5002
*.normal_car[*].app[2].destPort = 5000
*.normal_car[*].app[2].messageLength = 512B
*.normal_car[*].app[2].sendInterval = 0.5s
*.normal_car[*].app[2].packetName = "UDPData"

*.normal_car[1].numApps = 2
*.normal_car[1].app[1].destAddresses = "normal_car[0]"
*.normal_car[1].app[1].startTime = 15s

*.normal_car[2].numApps = 3
*.normal_car[2].app[1].destAddresses = "normal_car[1]"
*.normal_car[2].app[1].startTime = 18s
*.normal_car[2].app[2].destAddresses = "normal_car[0]"
*.normal_car[2].app[2].startTime = 21s

*.normal_car[3].numApps = 3
*.normal_car[3].app[1].destAddresses = "normal_car[2]"
*.normal_car[3].app[1].startTime = 24s
*.normal_car[3].app[2].destAddresses = "normal_car[1]"
*.normal_car[3].app[2].startTime = 27s



*.normal_car[8].numApps = 3
*.normal_car[8].app[1].destAddresses = "normal_car[0]"
*.normal_car[8].app[1].startTime = 54s
*.normal_car[8].app[2].destAddresses = "normal_car[2]"
*.normal_car[8].app[2].startTime = 57s

*.normal_car[9].numApps = 3
*.normal_car[9].app[1].destAddresses = "normal_car[3]"
*.normal_car[9].app[1].startTime = 60s
*.normal_car[9].app[2].destAddresses = "normal_car[0]"
*.normal_car[9].app[2].startTime = 63s

*.normal_car[10].numApps = 3
*.normal_car[10].app[1].destAddresses = "normal_car[0]"
*.normal_car[10].app[1].startTime = 66s
*.normal_car[10].app[2].destAddresses = "normal_car[3]"
*.normal_car[10].app[2].startTime = 69s

*.normal_car[14].numApps = 3
*.normal_car[14].app[1].destAddresses = "normal_car[9]"
*.normal_car[14].app[1].startTime = 66s
*.normal_car[14].app[2].destAddresses = "normal_car[3]"
*.normal_car[14].app[2].startTime = 69s

*.normal_car[16].numApps = 3
*.normal_car[16].app[1].destAddresses = "normal_car[9]"
*.normal_car[16].app[1].startTime = 66s
*.normal_car[16].app[2].destAddresses = "normal_car[10]"
*.normal_car[16].app[2].startTime = 69s

*.normal_car[19].numApps = 3
*.normal_car[19].app[1].destAddresses = "normal_car[14]"
*.normal_car[19].app[1].startTime = 66s
*.normal_car[19].app[2].destAddresses = "normal_car[10]"
*.normal_car[19].app[2].startTime = 69s

*.normal_car[20].numApps = 3