[General]
network = networkprojectvanet.simulations.grayhole.Scenario

cmdenv-express-mode = true
cmdenv-status-frequency = 0s

sim-time-limit = 300s
warmup-period = 10s
repeat = 50
seed-set = ${repetition}

*.normal_car[*].trustMonitor.warmupDuration = 10.0
*.normal_car[*].routing.warmupPacketLimit = 30
*.attacker_car[*].routing.warmupPacketLimit = 30
*.attacker_car[*].trustManager.enableDistributedTrust = false

*.*_car[*].ipv4.arp.typename = "Arp"

*.normal_car[*].ipv4.ip.forwarding = true
*.normal_car[*].ipv4.ip.procDelay = 0s
*.attacker_car[*].ipv4.ip.forwarding = true
*.attacker_car[*].ipv4.ip.procDelay = 0s

*.normal_car[*].ipv4.routingTable.routingFile = ""
*.normal_car[*].ipv4.routingTable.netmaskRoutes = ""
*.normal_car[*].ipv4.configurator.addDefaultRoutes = false
*.normal_car[*].ipv4.configurator.addStaticRoutes = false
*.normal_car[*].ipv4.configurator.addSubnetRoutes = false

*.attacker_car[*].ipv4.routingTable.routingFile = ""
*.attacker_car[*].ipv4.routingTable.netmaskRoutes = ""
*.attacker_car[*].ipv4.configurator.addDefaultRoutes = false
*.attacker_car[*].ipv4.configurator.addStaticRoutes = false
*.attacker_car[*].ipv4.configurator.addSubnetRoutes = false

# AODV
*.normal_car[*].routing.useHelloMessages = true
*.normal_car[*].routing.maxQueuedPackets = 100
*.normal_car[*].routing.maxQueueTime = 60s
*.normal_car[*].routing.activeRouteTimeout = 5s
*.normal_car[*].routing.helloInterval = 3s
*.normal_car[*].routing.allowedHelloLoss = 3
*.normal_car[*].routing.netDiameter = 35
*.normal_car[*].routing.rreqRetries = 2
*.normal_car[*].routing.rreqRatelimit = 40
*.normal_car[*].routing.destinationOnlyFlag = false

*.attacker_car[*].routing.useHelloMessages = true
*.attacker_car[*].routing.maxQueuedPackets = 100
*.attacker_car[*].routing.maxQueueTime = 60s
*.attacker_car[*].routing.activeRouteTimeout = 5s
*.attacker_car[*].routing.helloInterval = 3s
*.attacker_car[*].routing.allowedHelloLoss = 3
*.attacker_car[*].routing.netDiameter = 35
*.attacker_car[*].routing.rreqRetries = 2
*.attacker_car[*].routing.rreqRatelimit = 40
*.attacker_car[*].routing.destinationOnlyFlag = false

# TRUST
*.normal_car[*].trustManager.trustThreshold = 0.5
*.normal_car[*].trustManager.initialTrust = 1.0
*.normal_car[*].trustManager.enableDistributedTrust = true
*.attacker_car[*].trustManager.enableDistributedTrust = true
*.attacker_car[*].trustManager.trustThreshold = 1

*.normal_car[*].trustMonitor.forwardingWindowDuration = 5s
*.normal_car[*].trustMonitor.hopCountTimeout = 4s



# ============================================
# WIRELESS INTERFACE
# ============================================
*.*_car[*].wlan[*].typename = "WirelessInterface"
*.*_car[*].wlan[*].mac.typename = "CsmaCaMac"
*.*_car[*].wlan[*].mac.useAck = false
*.*_car[*].wlan[*].mac.headerLength = 23B
*.*_car[*].wlan[*].mac.bitrate = 2Mbps
*.*_car[*].wlan[*].radio.transmitter.bitrate = 2Mbps
*.*_car[*].wlan[*].radio.typename = "UnitDiskRadio"
*.*_car[*].wlan[*].radio.transmitter.headerLength = 96b
*.*_car[*].wlan[*].radio.transmitter.communicationRange = 400m
*.*_car[*].wlan[*].radio.transmitter.interferenceRange = 0m
*.*_car[*].wlan[*].radio.transmitter.detectionRange = 0m
*.*_car[*].wlan[*].radio.receiver.ignoreInterference = true


*.*_car[*].ipv4.configurator.typename = "HostAutoConfigurator"
*.*_car[*].ipv4.configurator.interfaces = "wlan0"
*.*_car[*].ipv4.configurator.mcastGroups = "224.0.0.1"

# DEFAULT APPS
*.normal_car[*].numApps = 1
*.normal_car[*].app[0].typename = "UdpSink"
*.normal_car[*].app[0].localPort = 5000
*.normal_car[*].routing.deletePeriod = 5s

*.attacker_car[*].numApps = 1
*.attacker_car[*].app[0].typename = "UdpSink"
*.attacker_car[*].app[0].localPort = 5000
*.attacker_car[*].routing.deletePeriod = 5s

*.*_car[*].mobility.typename = "VeinsInetMobility"
*.manager.updateInterval = 0.1s

*.visualizer.networkRouteVisualizer.displayRoutes = true
*.*_car[*].wlan[0].radio.displayCommunicationRange = true

# STATISTICHE
**.vector-recording = false
**.scalar-recording = true
**.wlan[*].*.scalar-recording = false
**.radioMedium.*.scalar-recording = false
**.mobility.*.scalar-recording = false

*.normal_car[*].app[*].scalar-recording = true
*.attacker_car[*].app[*].scalar-recording = true

**.trustManager.detectionTP.result-recording-modes = +sum
**.trustManager.detectionFP.result-recording-modes = +sum
**.trustManager.detectionFN.result-recording-modes = +sum
**.trustManager.detectionTN.result-recording-modes = +sum

**.mitigationManager.blacklistTP.result-recording-modes = +sum
**.mitigationManager.blacklistFP.result-recording-modes = +sum
**.mitigationManager.blacklistFN.result-recording-modes = +sum




# ============================================================
# SCENARIO 1  NO ATTACK
# ============================================================
[Config S1_NoAttack_Medium_8pct]
description = "Baseline AODV puro - Medium (50 nodi)"
*.manager.launchConfig = xmldoc("arcavacatamap_medium_8pct.launchd.xml")
*.manager.moduleType = "normal_car=networkprojectvanet.veins_inet.AodvCar slow_car=networkprojectvanet.veins_inet.AodvCar *=networkprojectvanet.veins_inet.AodvCar"
*.manager.moduleName = "normal_car=normal_car slow_car=normal_car *=normal_car"
*.manager.moduleDisplayString = "normal_car='i=veins/node/car;is=vs' slow_car='i=veins/node/car;is=vs' *='i=veins/node/car;is=vs'"
*.attacker_car[*].forwarding = true
*.attacker_car[*].routing.droppingRate = 70

*.normal_car[*].app[1].typename = "UdpBasicApp"
*.normal_car[*].app[1].localPort = 5001
*.normal_car[*].app[1].destPort = 5000
*.normal_car[*].app[1].messageLength = 512B
*.normal_car[*].app[1].sendInterval = 0.5s
*.normal_car[*].app[1].packetName = "UDPData"

*.normal_car[*].app[2].typename = "UdpBasicApp"
*.normal_car[*].app[2].localPort = 5002
*.normal_car[*].app[2].destPort = 5000
*.normal_car[*].app[2].messageLength = 512B
*.normal_car[*].app[2].sendInterval = 0.5s
*.normal_car[*].app[2].packetName = "UDPData"


*.normal_car[2].numApps = 3
*.normal_car[2].app[1].destAddresses = "normal_car[1]"
*.normal_car[2].app[1].startTime = 17s


*.normal_car[3].numApps = 3
*.normal_car[3].app[1].destAddresses = "normal_car[2]"
*.normal_car[3].app[1].startTime = 19s
*.normal_car[3].app[2].destAddresses = "normal_car[1]"
*.normal_car[3].app[2].startTime = 20s

*.normal_car[4].numApps = 3
*.normal_car[4].app[1].destAddresses = "normal_car[2]"
*.normal_car[4].app[1].startTime = 21s
*.normal_car[4].app[2].destAddresses = "normal_car[1]"
*.normal_car[4].app[2].startTime = 22s

*.normal_car[5].numApps = 3
*.normal_car[5].app[1].destAddresses = "normal_car[1]"
*.normal_car[5].app[1].startTime = 23s
*.normal_car[5].app[2].destAddresses = "normal_car[2]"
*.normal_car[5].app[2].startTime = 24s

*.normal_car[6].numApps = 3
*.normal_car[6].app[1].destAddresses = "normal_car[2]"
*.normal_car[6].app[1].startTime = 25s
*.normal_car[6].app[2].destAddresses = "normal_car[4]"
*.normal_car[6].app[2].startTime = 26s

*.normal_car[7].numApps = 3
*.normal_car[7].app[1].destAddresses = "normal_car[4]"
*.normal_car[7].app[1].startTime = 27s
*.normal_car[7].app[2].destAddresses = "normal_car[3]"
*.normal_car[7].app[2].startTime = 28s

*.normal_car[8].numApps = 3
*.normal_car[8].app[1].destAddresses = "normal_car[5]"
*.normal_car[8].app[1].startTime = 29s
*.normal_car[8].app[2].destAddresses = "normal_car[4]"
*.normal_car[8].app[2].startTime = 30s

*.normal_car[9].numApps = 3
*.normal_car[9].app[1].destAddresses = "normal_car[6]"
*.normal_car[9].app[1].startTime = 31s
*.normal_car[9].app[2].destAddresses = "normal_car[4]"
*.normal_car[9].app[2].startTime = 32s

*.normal_car[10].numApps = 3
*.normal_car[10].app[1].destAddresses = "normal_car[6]"
*.normal_car[10].app[1].startTime = 33s
*.normal_car[10].app[2].destAddresses = "normal_car[5]"
*.normal_car[10].app[2].startTime = 34s

*.normal_car[11].numApps = 3
*.normal_car[11].app[1].destAddresses = "normal_car[8]"
*.normal_car[11].app[1].startTime = 35s
*.normal_car[11].app[2].destAddresses = "normal_car[5]"
*.normal_car[11].app[2].startTime = 36s



*.normal_car[13].numApps = 3
*.normal_car[13].app[1].destAddresses = "normal_car[7]"
*.normal_car[13].app[1].startTime = 39s
*.normal_car[13].app[2].destAddresses = "normal_car[5]"
*.normal_car[13].app[2].startTime = 40s

*.normal_car[14].numApps = 3
*.normal_car[14].app[1].destAddresses = "normal_car[10]"
*.normal_car[14].app[1].startTime = 41s
*.normal_car[14].app[2].destAddresses = "normal_car[8]"
*.normal_car[14].app[2].startTime = 42s

*.normal_car[15].numApps = 3
*.normal_car[15].app[1].destAddresses = "normal_car[10]"
*.normal_car[15].app[1].startTime = 43s
*.normal_car[15].app[2].destAddresses = "normal_car[7]"
*.normal_car[15].app[2].startTime = 44s

*.normal_car[16].numApps = 3
*.normal_car[16].app[1].destAddresses = "normal_car[11]"
*.normal_car[16].app[1].startTime = 45s
*.normal_car[16].app[2].destAddresses = "normal_car[8]"
*.normal_car[16].app[2].startTime = 46s

*.normal_car[17].numApps = 3
*.normal_car[17].app[1].destAddresses = "normal_car[13]"
*.normal_car[17].app[1].startTime = 47s
*.normal_car[17].app[2].destAddresses = "normal_car[8]"
*.normal_car[17].app[2].startTime = 48s

*.normal_car[18].numApps = 3
*.normal_car[18].app[1].destAddresses = "normal_car[14]"
*.normal_car[18].app[1].startTime = 49s
*.normal_car[18].app[2].destAddresses = "normal_car[9]"
*.normal_car[18].app[2].startTime = 50s

*.normal_car[19].numApps = 3
*.normal_car[19].app[1].destAddresses = "normal_car[15]"
*.normal_car[19].app[1].startTime = 51s
*.normal_car[19].app[2].destAddresses = "normal_car[10]"
*.normal_car[19].app[2].startTime = 52s

*.normal_car[20].numApps = 3
*.normal_car[20].app[1].destAddresses = "normal_car[16]"
*.normal_car[20].app[1].startTime = 53s
*.normal_car[20].app[2].destAddresses = "normal_car[11]"
*.normal_car[20].app[2].startTime = 54s

*.normal_car[21].numApps = 3
*.normal_car[21].app[1].destAddresses = "normal_car[9]"
*.normal_car[21].app[1].startTime = 55s
*.normal_car[21].app[2].destAddresses = "normal_car[10]"
*.normal_car[21].app[2].startTime = 56s

*.normal_car[22].numApps = 3
*.normal_car[22].app[1].destAddresses = "normal_car[9]"
*.normal_car[22].app[1].startTime = 57s
*.normal_car[22].app[2].destAddresses = "normal_car[11]"
*.normal_car[22].app[2].startTime = 58s

*.normal_car[23].numApps = 3
*.normal_car[23].app[1].destAddresses = "normal_car[9]"
*.normal_car[23].app[1].startTime = 59s
*.normal_car[23].app[2].destAddresses = "normal_car[11]"
*.normal_car[23].app[2].startTime = 60s

*.normal_car[24].numApps = 3
*.normal_car[24].app[1].destAddresses = "normal_car[8]"
*.normal_car[24].app[1].startTime = 61s
*.normal_car[24].app[2].destAddresses = "normal_car[10]"
*.normal_car[24].app[2].startTime = 62s



*.normal_car[26].numApps = 3
*.normal_car[26].app[1].destAddresses = "normal_car[20]"
*.normal_car[26].app[1].startTime = 65s
*.normal_car[26].app[2].destAddresses = "normal_car[18]"
*.normal_car[26].app[2].startTime = 66s

*.normal_car[27].numApps = 3
*.normal_car[27].app[1].destAddresses = "normal_car[10]"
*.normal_car[27].app[1].startTime = 67s
*.normal_car[27].app[2].destAddresses = "normal_car[20]"
*.normal_car[27].app[2].startTime = 68s

*.normal_car[28].numApps = 3
*.normal_car[28].app[1].destAddresses = "normal_car[13]"
*.normal_car[28].app[1].startTime = 69s
*.normal_car[28].app[2].destAddresses = "normal_car[19]"
*.normal_car[28].app[2].startTime = 70s

*.normal_car[29].numApps = 3
*.normal_car[29].app[1].destAddresses = "normal_car[14]"
*.normal_car[29].app[1].startTime = 71s
*.normal_car[29].app[2].destAddresses = "normal_car[20]"
*.normal_car[29].app[2].startTime = 72s

*.normal_car[30].numApps = 3
*.normal_car[30].app[1].destAddresses = "normal_car[20]"
*.normal_car[30].app[1].startTime = 73s
*.normal_car[30].app[2].destAddresses = "normal_car[18]"
*.normal_car[30].app[2].startTime = 74s

*.normal_car[31].numApps = 3
*.normal_car[31].app[1].destAddresses = "normal_car[21]"
*.normal_car[31].app[1].startTime = 75s
*.normal_car[31].app[2].destAddresses = "normal_car[24]"
*.normal_car[31].app[2].startTime = 76s

*.normal_car[32].numApps = 3
*.normal_car[32].app[1].destAddresses = "normal_car[22]"
*.normal_car[32].app[1].startTime = 77s
*.normal_car[32].app[2].destAddresses = "normal_car[19]"
*.normal_car[32].app[2].startTime = 78s

*.normal_car[33].numApps = 3
*.normal_car[33].app[1].destAddresses = "normal_car[27]"
*.normal_car[33].app[1].startTime = 79s
*.normal_car[33].app[2].destAddresses = "normal_car[20]"
*.normal_car[33].app[2].startTime = 80s

*.normal_car[34].numApps = 3
*.normal_car[34].app[1].destAddresses = "normal_car[19]"
*.normal_car[34].app[1].startTime = 81s
*.normal_car[34].app[2].destAddresses = "normal_car[26]"
*.normal_car[34].app[2].startTime = 82s

*.normal_car[35].numApps = 3
*.normal_car[35].app[1].destAddresses = "normal_car[30]"
*.normal_car[35].app[1].startTime = 83s
*.normal_car[35].app[2].destAddresses = "normal_car[24]"
*.normal_car[35].app[2].startTime = 84s

*.normal_car[36].numApps = 3
*.normal_car[36].app[1].destAddresses = "normal_car[29]"
*.normal_car[36].app[1].startTime = 85s
*.normal_car[36].app[2].destAddresses = "normal_car[18]"
*.normal_car[36].app[2].startTime = 86s



*.normal_car[38].numApps = 3
*.normal_car[38].app[1].destAddresses = "normal_car[30]"
*.normal_car[38].app[1].startTime = 89s
*.normal_car[38].app[2].destAddresses = "normal_car[19]"
*.normal_car[38].app[2].startTime = 90s

*.normal_car[39].numApps = 3
*.normal_car[39].app[1].destAddresses = "normal_car[31]"
*.normal_car[39].app[1].startTime = 91s
*.normal_car[39].app[2].destAddresses = "normal_car[19]"
*.normal_car[39].app[2].startTime = 92s

*.normal_car[40].numApps = 3
*.normal_car[40].app[1].destAddresses = "normal_car[32]"
*.normal_car[40].app[1].startTime = 93s
*.normal_car[40].app[2].destAddresses = "normal_car[20]"
*.normal_car[40].app[2].startTime = 94s

*.normal_car[41].numApps = 3
*.normal_car[41].app[1].destAddresses = "normal_car[33]"
*.normal_car[41].app[1].startTime = 95s
*.normal_car[41].app[2].destAddresses = "normal_car[24]"
*.normal_car[41].app[2].startTime = 96s

*.normal_car[42].numApps = 3
*.normal_car[42].app[1].destAddresses = "normal_car[34]"
*.normal_car[42].app[1].startTime = 97s
*.normal_car[42].app[2].destAddresses = "normal_car[23]"
*.normal_car[42].app[2].startTime = 98s

*.normal_car[43].numApps = 3
*.normal_car[43].app[1].destAddresses = "normal_car[35]"
*.normal_car[43].app[1].startTime = 99s
*.normal_car[43].app[2].destAddresses = "normal_car[21]"
*.normal_car[43].app[2].startTime = 100s

*.normal_car[44].numApps = 3
*.normal_car[44].app[1].destAddresses = "normal_car[36]"
*.normal_car[44].app[1].startTime = 101s
*.normal_car[44].app[2].destAddresses = "normal_car[22]"
*.normal_car[44].app[2].startTime = 102s

*.normal_car[45].numApps = 3
*.normal_car[45].app[1].destAddresses = "normal_car[36]"
*.normal_car[45].app[1].startTime = 103s
*.normal_car[45].app[2].destAddresses = "normal_car[22]"
*.normal_car[45].app[2].startTime = 104s

*.normal_car[46].numApps = 3
*.normal_car[46].app[1].destAddresses = "normal_car[35]"
*.normal_car[46].app[1].startTime = 105s
*.normal_car[46].app[2].destAddresses = "normal_car[23]"
*.normal_car[46].app[2].startTime = 106s

*.normal_car[47].numApps = 3
*.normal_car[47].app[1].destAddresses = "normal_car[40]"
*.normal_car[47].app[1].startTime = 107s
*.normal_car[47].app[2].destAddresses = "normal_car[33]"
*.normal_car[47].app[2].startTime = 108s

*.normal_car[48].numApps = 3
*.normal_car[48].app[1].destAddresses = "normal_car[45]"
*.normal_car[48].app[1].startTime = 109s
*.normal_car[48].app[2].destAddresses = "normal_car[30]"
*.normal_car[48].app[2].startTime = 110s

*.normal_car[49].numApps = 3
*.normal_car[49].app[1].destAddresses = "normal_car[48]"
*.normal_car[49].app[1].startTime = 111s
*.normal_car[49].app[2].destAddresses = "normal_car[24]"
*.normal_car[49].app[2].startTime = 112s

# Default: tutti gli altri ascoltano
*.normal_car[*].numApps = 1
*.normal_car[*].app[0].typename = "UdpSink"
*.normal_car[*].app[0].localPort = 5000
*.normal_car[*].routing.deletePeriod = 5s

*.attacker_car[*].numApps = 1
*.attacker_car[*].app[0].typename = "UdpSink"
*.attacker_car[*].app[0].localPort = 5000
*.attacker_car[*].routing.deletePeriod = 5s


# ============================================================
# SCENARIO 1  NO ATTACK
# ============================================================
[Config S1_NoAttack_Medium_15pct]
description = "Baseline AODV puro - Medium (50 nodi)"
*.manager.launchConfig = xmldoc("arcavacatamap_medium_15pct.launchd.xml")
*.manager.moduleType = "normal_car=networkprojectvanet.veins_inet.AodvCar slow_car=networkprojectvanet.veins_inet.AodvCar *=networkprojectvanet.veins_inet.AodvCar"
*.manager.moduleName = "normal_car=normal_car slow_car=normal_car *=normal_car"
*.manager.moduleDisplayString = "normal_car='i=veins/node/car;is=vs' slow_car='i=veins/node/car;is=vs' *='i=veins/node/car;is=vs'"
*.attacker_car[*].forwarding = true
*.attacker_car[*].routing.droppingRate = 70

*.normal_car[*].app[1].typename = "UdpBasicApp"
*.normal_car[*].app[1].localPort = 5001
*.normal_car[*].app[1].destPort = 5000
*.normal_car[*].app[1].messageLength = 512B
*.normal_car[*].app[1].sendInterval = 0.5s
*.normal_car[*].app[1].packetName = "UDPData"

*.normal_car[*].app[2].typename = "UdpBasicApp"
*.normal_car[*].app[2].localPort = 5002
*.normal_car[*].app[2].destPort = 5000
*.normal_car[*].app[2].messageLength = 512B
*.normal_car[*].app[2].sendInterval = 0.5s
*.normal_car[*].app[2].packetName = "UDPData"



*.normal_car[2].numApps = 3
*.normal_car[2].app[1].destAddresses = "normal_car[1]"
*.normal_car[2].app[1].startTime = 17s


*.normal_car[3].numApps = 3
*.normal_car[3].app[1].destAddresses = "normal_car[2]"
*.normal_car[3].app[1].startTime = 19s
*.normal_car[3].app[2].destAddresses = "normal_car[1]"
*.normal_car[3].app[2].startTime = 20s

*.normal_car[4].numApps = 3
*.normal_car[4].app[1].destAddresses = "normal_car[2]"
*.normal_car[4].app[1].startTime = 21s
*.normal_car[4].app[2].destAddresses = "normal_car[1]"
*.normal_car[4].app[2].startTime = 22s

*.normal_car[5].numApps = 3
*.normal_car[5].app[1].destAddresses = "normal_car[1]"
*.normal_car[5].app[1].startTime = 23s
*.normal_car[5].app[2].destAddresses = "normal_car[2]"
*.normal_car[5].app[2].startTime = 24s



*.normal_car[7].numApps = 3
*.normal_car[7].app[1].destAddresses = "normal_car[4]"
*.normal_car[7].app[1].startTime = 27s
*.normal_car[7].app[2].destAddresses = "normal_car[3]"
*.normal_car[7].app[2].startTime = 28s

*.normal_car[8].numApps = 3
*.normal_car[8].app[1].destAddresses = "normal_car[5]"
*.normal_car[8].app[1].startTime = 29s
*.normal_car[8].app[2].destAddresses = "normal_car[4]"
*.normal_car[8].app[2].startTime = 30s

*.normal_car[9].numApps = 3
*.normal_car[9].app[1].destAddresses = "normal_car[3]"
*.normal_car[9].app[1].startTime = 31s
*.normal_car[9].app[2].destAddresses = "normal_car[4]"
*.normal_car[9].app[2].startTime = 32s

*.normal_car[10].numApps = 3
*.normal_car[10].app[1].destAddresses = "normal_car[4]"
*.normal_car[10].app[1].startTime = 33s
*.normal_car[10].app[2].destAddresses = "normal_car[5]"
*.normal_car[10].app[2].startTime = 34s

*.normal_car[11].numApps = 3
*.normal_car[11].app[1].destAddresses = "normal_car[4]"
*.normal_car[11].app[1].startTime = 35s
*.normal_car[11].app[2].destAddresses = "normal_car[5]"
*.normal_car[11].app[2].startTime = 36s



*.normal_car[13].numApps = 3
*.normal_car[13].app[1].destAddresses = "normal_car[7]"
*.normal_car[13].app[1].startTime = 39s
*.normal_car[13].app[2].destAddresses = "normal_car[5]"
*.normal_car[13].app[2].startTime = 40s

*.normal_car[14].numApps = 3
*.normal_car[14].app[1].destAddresses = "normal_car[5]"
*.normal_car[14].app[1].startTime = 41s
*.normal_car[14].app[2].destAddresses = "normal_car[8]"
*.normal_car[14].app[2].startTime = 42s

*.normal_car[15].numApps = 3
*.normal_car[15].app[1].destAddresses = "normal_car[10]"
*.normal_car[15].app[1].startTime = 43s
*.normal_car[15].app[2].destAddresses = "normal_car[5]"
*.normal_car[15].app[2].startTime = 44s

*.normal_car[16].numApps = 3
*.normal_car[16].app[1].destAddresses = "normal_car[11]"
*.normal_car[16].app[1].startTime = 45s
*.normal_car[16].app[2].destAddresses = "normal_car[5]"
*.normal_car[16].app[2].startTime = 46s

*.normal_car[17].numApps = 3
*.normal_car[17].app[1].destAddresses = "normal_car[10]"
*.normal_car[17].app[1].startTime = 47s
*.normal_car[17].app[2].destAddresses = "normal_car[8]"
*.normal_car[17].app[2].startTime = 48s


*.normal_car[19].numApps = 3
*.normal_car[19].app[1].destAddresses = "normal_car[15]"
*.normal_car[19].app[1].startTime = 51s
*.normal_car[19].app[2].destAddresses = "normal_car[10]"
*.normal_car[19].app[2].startTime = 52s

*.normal_car[20].numApps = 3
*.normal_car[20].app[1].destAddresses = "normal_car[16]"
*.normal_car[20].app[1].startTime = 53s
*.normal_car[20].app[2].destAddresses = "normal_car[11]"
*.normal_car[20].app[2].startTime = 54s

*.normal_car[21].numApps = 3
*.normal_car[21].app[1].destAddresses = "normal_car[10]"
*.normal_car[21].app[1].startTime = 55s
*.normal_car[21].app[2].destAddresses = "normal_car[17]"
*.normal_car[21].app[2].startTime = 56s

*.normal_car[22].numApps = 3
*.normal_car[22].app[1].destAddresses = "normal_car[15]"
*.normal_car[22].app[1].startTime = 57s
*.normal_car[22].app[2].destAddresses = "normal_car[11]"
*.normal_car[22].app[2].startTime = 58s

*.normal_car[23].numApps = 3
*.normal_car[23].app[1].destAddresses = "normal_car[9]"
*.normal_car[23].app[1].startTime = 59s
*.normal_car[23].app[2].destAddresses = "normal_car[11]"
*.normal_car[23].app[2].startTime = 60s

*.normal_car[24].numApps = 3
*.normal_car[24].app[1].destAddresses = "normal_car[16]"
*.normal_car[24].app[1].startTime = 61s
*.normal_car[24].app[2].destAddresses = "normal_car[10]"
*.normal_car[24].app[2].startTime = 62s



*.normal_car[26].numApps = 3
*.normal_car[26].app[1].destAddresses = "normal_car[20]"
*.normal_car[26].app[1].startTime = 65s
*.normal_car[26].app[2].destAddresses = "normal_car[16]"
*.normal_car[26].app[2].startTime = 66s

*.normal_car[27].numApps = 3
*.normal_car[27].app[1].destAddresses = "normal_car[10]"
*.normal_car[27].app[1].startTime = 67s
*.normal_car[27].app[2].destAddresses = "normal_car[20]"
*.normal_car[27].app[2].startTime = 68s

*.normal_car[28].numApps = 3
*.normal_car[28].app[1].destAddresses = "normal_car[13]"
*.normal_car[28].app[1].startTime = 69s
*.normal_car[28].app[2].destAddresses = "normal_car[19]"
*.normal_car[28].app[2].startTime = 70s

*.normal_car[29].numApps = 3
*.normal_car[29].app[1].destAddresses = "normal_car[14]"
*.normal_car[29].app[1].startTime = 71s
*.normal_car[29].app[2].destAddresses = "normal_car[20]"
*.normal_car[29].app[2].startTime = 72s

*.normal_car[30].numApps = 3
*.normal_car[30].app[1].destAddresses = "normal_car[20]"
*.normal_car[30].app[1].startTime = 73s
*.normal_car[30].app[2].destAddresses = "normal_car[17]"
*.normal_car[30].app[2].startTime = 74s


*.normal_car[32].numApps = 3
*.normal_car[32].app[1].destAddresses = "normal_car[22]"
*.normal_car[32].app[1].startTime = 77s
*.normal_car[32].app[2].destAddresses = "normal_car[29]"
*.normal_car[32].app[2].startTime = 78s

*.normal_car[33].numApps = 3
*.normal_car[33].app[1].destAddresses = "normal_car[27]"
*.normal_car[33].app[1].startTime = 79s
*.normal_car[33].app[2].destAddresses = "normal_car[23]"
*.normal_car[33].app[2].startTime = 80s

*.normal_car[34].numApps = 3
*.normal_car[34].app[1].destAddresses = "normal_car[30]"
*.normal_car[34].app[1].startTime = 81s
*.normal_car[34].app[2].destAddresses = "normal_car[24]"
*.normal_car[34].app[2].startTime = 82s

*.normal_car[35].numApps = 3
*.normal_car[35].app[1].destAddresses = "normal_car[28]"
*.normal_car[35].app[1].startTime = 83s
*.normal_car[35].app[2].destAddresses = "normal_car[24]"
*.normal_car[35].app[2].startTime = 84s

*.normal_car[36].numApps = 3
*.normal_car[36].app[1].destAddresses = "normal_car[27]"
*.normal_car[36].app[1].startTime = 85s
*.normal_car[36].app[2].destAddresses = "normal_car[22]"
*.normal_car[36].app[2].startTime = 86s



*.normal_car[38].numApps = 3
*.normal_car[38].app[1].destAddresses = "normal_car[30]"
*.normal_car[38].app[1].startTime = 89s
*.normal_car[38].app[2].destAddresses = "normal_car[29]"
*.normal_car[38].app[2].startTime = 90s

*.normal_car[39].numApps = 3
*.normal_car[39].app[1].destAddresses = "normal_car[33]"
*.normal_car[39].app[1].startTime = 91s
*.normal_car[39].app[2].destAddresses = "normal_car[24]"
*.normal_car[39].app[2].startTime = 92s

*.normal_car[40].numApps = 3
*.normal_car[40].app[1].destAddresses = "normal_car[34]"
*.normal_car[40].app[1].startTime = 93s
*.normal_car[40].app[2].destAddresses = "normal_car[30]"
*.normal_car[40].app[2].startTime = 94s

*.normal_car[41].numApps = 3
*.normal_car[41].app[1].destAddresses = "normal_car[36]"
*.normal_car[41].app[1].startTime = 95s
*.normal_car[41].app[2].destAddresses = "normal_car[38]"
*.normal_car[41].app[2].startTime = 96s

*.normal_car[42].numApps = 3
*.normal_car[42].app[1].destAddresses = "normal_car[35]"
*.normal_car[42].app[1].startTime = 97s
*.normal_car[42].app[2].destAddresses = "normal_car[33]"
*.normal_car[42].app[2].startTime = 98s



*.normal_car[44].numApps = 3
*.normal_car[44].app[1].destAddresses = "normal_car[40]"
*.normal_car[44].app[1].startTime = 101s
*.normal_car[44].app[2].destAddresses = "normal_car[22]"
*.normal_car[44].app[2].startTime = 102s

*.normal_car[45].numApps = 3
*.normal_car[45].app[1].destAddresses = "normal_car[41]"
*.normal_car[45].app[1].startTime = 103s
*.normal_car[45].app[2].destAddresses = "normal_car[24]"
*.normal_car[45].app[2].startTime = 104s

*.normal_car[46].numApps = 3
*.normal_car[46].app[1].destAddresses = "normal_car[41]"
*.normal_car[46].app[1].startTime = 105s
*.normal_car[46].app[2].destAddresses = "normal_car[38]"
*.normal_car[46].app[2].startTime = 106s

*.normal_car[47].numApps = 3
*.normal_car[47].app[1].destAddresses = "normal_car[42]"
*.normal_car[47].app[1].startTime = 107s
*.normal_car[47].app[2].destAddresses = "normal_car[39]"
*.normal_car[47].app[2].startTime = 108s

*.normal_car[48].numApps = 3
*.normal_car[48].app[1].destAddresses = "normal_car[42]"
*.normal_car[48].app[1].startTime = 109s
*.normal_car[48].app[2].destAddresses = "normal_car[40]"
*.normal_car[48].app[2].startTime = 110s

*.normal_car[49].numApps = 3
*.normal_car[49].app[1].destAddresses = "normal_car[45]"
*.normal_car[49].app[1].startTime = 111s
*.normal_car[49].app[2].destAddresses = "normal_car[36]"
*.normal_car[49].app[2].startTime = 112s


# Default: tutti gli altri ascoltano
*.normal_car[*].numApps = 1
*.normal_car[*].app[0].typename = "UdpSink"
*.normal_car[*].app[0].localPort = 5000
*.normal_car[*].routing.deletePeriod = 5s

*.attacker_car[*].numApps = 1
*.attacker_car[*].app[0].typename = "UdpSink"
*.attacker_car[*].app[0].localPort = 5000
*.attacker_car[*].routing.deletePeriod = 5s


# ============================================================
# SCENARIO 1  NO ATTACK
# ============================================================
[Config S1_NoAttack_Medium_30pct]
description = "Baseline AODV puro - Medium (50 nodi)"
*.manager.launchConfig = xmldoc("arcavacatamap_medium_30pct.launchd.xml")
*.manager.moduleType = "normal_car=networkprojectvanet.veins_inet.AodvCar slow_car=networkprojectvanet.veins_inet.AodvCar *=networkprojectvanet.veins_inet.AodvCar"
*.manager.moduleName = "normal_car=normal_car slow_car=normal_car *=normal_car"
*.manager.moduleDisplayString = "normal_car='i=veins/node/car;is=vs' slow_car='i=veins/node/car;is=vs' *='i=veins/node/car;is=vs'"
*.attacker_car[*].forwarding = true
*.attacker_car[*].routing.droppingRate = 70

*.normal_car[*].app[1].typename = "UdpBasicApp"
*.normal_car[*].app[1].localPort = 5001
*.normal_car[*].app[1].destPort = 5000
*.normal_car[*].app[1].messageLength = 512B
*.normal_car[*].app[1].sendInterval = 0.5s
*.normal_car[*].app[1].packetName = "UDPData"

*.normal_car[*].app[2].typename = "UdpBasicApp"
*.normal_car[*].app[2].localPort = 5002
*.normal_car[*].app[2].destPort = 5000
*.normal_car[*].app[2].messageLength = 512B
*.normal_car[*].app[2].sendInterval = 0.5s
*.normal_car[*].app[2].packetName = "UDPData"


*.normal_car[2].numApps = 3
*.normal_car[2].app[1].destAddresses = "normal_car[1]"
*.normal_car[2].app[1].startTime = 17s



*.normal_car[4].numApps = 3
*.normal_car[4].app[1].destAddresses = "normal_car[2]"
*.normal_car[4].app[1].startTime = 21s
*.normal_car[4].app[2].destAddresses = "normal_car[1]"
*.normal_car[4].app[2].startTime = 22s

*.normal_car[5].numApps = 3
*.normal_car[5].app[1].destAddresses = "normal_car[1]"
*.normal_car[5].app[1].startTime = 23s
*.normal_car[5].app[2].destAddresses = "normal_car[2]"
*.normal_car[5].app[2].startTime = 24s


*.normal_car[7].numApps = 3
*.normal_car[7].app[1].destAddresses = "normal_car[2]"
*.normal_car[7].app[1].startTime = 27s
*.normal_car[7].app[2].destAddresses = "normal_car[1]"
*.normal_car[7].app[2].startTime = 28s

*.normal_car[8].numApps = 3
*.normal_car[8].app[1].destAddresses = "normal_car[2]"
*.normal_car[8].app[1].startTime = 29s
*.normal_car[8].app[2].destAddresses = "normal_car[4]"
*.normal_car[8].app[2].startTime = 30s

*.normal_car[9].numApps = 3
*.normal_car[9].app[1].destAddresses = "normal_car[5]"
*.normal_car[9].app[1].startTime = 31s
*.normal_car[9].app[2].destAddresses = "normal_car[4]"
*.normal_car[9].app[2].startTime = 32s


*.normal_car[11].numApps = 3
*.normal_car[11].app[1].destAddresses = "normal_car[4]"
*.normal_car[11].app[1].startTime = 35s
*.normal_car[11].app[2].destAddresses = "normal_car[5]"
*.normal_car[11].app[2].startTime = 36s



*.normal_car[12].numApps = 3
*.normal_car[12].app[1].destAddresses = "normal_car[7]"
*.normal_car[12].app[1].startTime = 39s
*.normal_car[12].app[2].destAddresses = "normal_car[5]"
*.normal_car[12].app[2].startTime = 40s

*.normal_car[14].numApps = 3
*.normal_car[14].app[1].destAddresses = "normal_car[11]"