[General]
network = networkprojectvanet.simulations.grayhole.Scenario

# ============================================
# LOG
# ============================================
#**.cmdenv-log-level = off
cmdenv-express-mode = true
#cmdenv-express-mode = false
##cmdenv-output-file = results/debug_log.txt
cmdenv-status-frequency = 0s
#*.attacker_car[*].routing.cmdenv-log-level = warn

# ============================================
# CONFIGURAZIONE RETE
# ============================================
sim-time-limit = 300s
warmup-period = 10s
repeat = 50
seed-set = ${repetition}

*.*_car[*].ipv4.arp.typename = "Arp"

*.attacker_car[*].trustManager.enableDistributedTrust = false

# ============================================
# CRITICAL: IP E ROUTING CONFIGURATION
# ============================================
*.normal_car[*].ipv4.ip.forwarding = true
*.normal_car[*].ipv4.ip.procDelay = 0s
*.attacker_car[*].ipv4.ip.forwarding = true
*.attacker_car[*].ipv4.ip.procDelay = 0s

# ============================================
# CRITICAL: Disabilita rotte automatiche
# ============================================
*.normal_car[*].ipv4.routingTable.routingFile = ""
*.normal_car[*].ipv4.routingTable.netmaskRoutes = ""
*.normal_car[*].ipv4.configurator.addDefaultRoutes = false
*.normal_car[*].ipv4.configurator.addStaticRoutes = false
*.normal_car[*].ipv4.configurator.addSubnetRoutes = false

*.attacker_car[*].ipv4.routingTable.routingFile = ""
*.attacker_car[*].ipv4.routingTable.netmaskRoutes = ""
*.attacker_car[*].ipv4.configurator.addDefaultRoutes = false
*.attacker_car[*].ipv4.configurator.addStaticRoutes = false
*.attacker_car[*].ipv4.configurator.addSubnetRoutes = false

# ============================================
# CRITICAL: AODV CONFIGURATION  valori ridotti
# ============================================
*.normal_car[*].routing.useHelloMessages = true
*.normal_car[*].routing.maxQueuedPackets = 100
*.normal_car[*].routing.maxQueueTime = 60s
*.normal_car[*].routing.activeRouteTimeout = 5s
*.normal_car[*].routing.helloInterval = 2s
*.normal_car[*].routing.allowedHelloLoss = 3
*.normal_car[*].routing.netDiameter = 35
*.normal_car[*].routing.rreqRetries = 2
*.normal_car[*].routing.rreqRatelimit = 10
*.normal_car[*].routing.destinationOnlyFlag = false

# Warmup pacchetti per fase trust attiva
*.normal_car[*].routing.warmupPacketLimit = 30
*.attacker_car[*].routing.warmupPacketLimit = 30

*.attacker_car[*].routing.useHelloMessages = true
*.attacker_car[*].routing.maxQueuedPackets = 20
*.attacker_car[*].routing.maxQueueTime = 60s
*.attacker_car[*].routing.activeRouteTimeout = 5s
*.attacker_car[*].routing.helloInterval = 2s
*.attacker_car[*].routing.allowedHelloLoss = 3
*.attacker_car[*].routing.netDiameter = 35
*.attacker_car[*].routing.rreqRetries = 2
*.attacker_car[*].routing.rreqRatelimit = 10
*.attacker_car[*].routing.destinationOnlyFlag = false

# ============================================
# TRUST MANAGER PARAMETERS
# ============================================
*.normal_car[*].trustManager.trustThreshold = 0.3
*.normal_car[*].trustManager.initialTrust = 1.0

*.normal_car[*].trustManager.enableDistributedTrust = true
*.attacker_car[*].trustManager.enableDistributedTrust = true
*.attacker_car[*].trustManager.trustThreshold = 1


# TrustMonitor
*.normal_car[*].trustMonitor.forwardingWindowDuration = 5s
*.normal_car[*].trustMonitor.hopCountTimeout = 4s
*.normal_car[*].trustMonitor.warmupDuration = 10.0

# ============================================
# WIRELESS INTERFACE
# ============================================
*.*_car[*].wlan[*].typename = "WirelessInterface"
*.*_car[*].wlan[*].mac.typename = "CsmaCaMac"
*.*_car[*].wlan[*].mac.useAck = false
*.*_car[*].wlan[*].mac.headerLength = 23B
*.*_car[*].wlan[*].mac.bitrate = 2Mbps
*.*_car[*].wlan[*].radio.transmitter.bitrate = 2Mbps
*.*_car[*].wlan[*].radio.typename = "UnitDiskRadio"
*.*_car[*].wlan[*].radio.transmitter.headerLength = 96b
*.*_car[*].wlan[*].radio.transmitter.communicationRange = 350m
*.*_car[*].wlan[*].radio.transmitter.interferenceRange = 0m
*.*_car[*].wlan[*].radio.transmitter.detectionRange = 0m
*.*_car[*].wlan[*].radio.receiver.ignoreInterference = true

# ============================================
# HOST AUTO CONFIGURATOR
# ============================================
*.*_car[*].ipv4.configurator.typename = "HostAutoConfigurator"
*.*_car[*].ipv4.configurator.interfaces = "wlan0"
*.*_car[*].ipv4.configurator.mcastGroups = "224.0.0.1"

# ============================================
# APPLICAZIONI UDP  default: tutti ascoltano
# Le coppie mittente/destinatario sono definite
# nei singoli [Config] per ogni scenario.
# ============================================
*.normal_car[*].numApps = 1
*.normal_car[*].app[0].typename = "UdpSink"
*.normal_car[*].app[0].localPort = 5000
*.normal_car[*].routing.deletePeriod = 5s

*.attacker_car[*].numApps = 1
*.attacker_car[*].app[0].typename = "UdpSink"
*.attacker_car[*].app[0].localPort = 5000
*.attacker_car[*].routing.deletePeriod = 5s

# ============================================
# MOBILITY
# ============================================
*.*_car[*].mobility.typename = "VeinsInetMobility"

# ============================================
# VEINS INET MANAGER
# ============================================
*.manager.updateInterval = 0.1s

# ============================================
# VISUALIZATION
# ============================================
*.visualizer.networkRouteVisualizer.displayRoutes = true
*.*_car[*].wlan[0].radio.displayCommunicationRange = true

# ============================================
# STATISTICHE
# ============================================
**.vector-recording = false
**.scalar-recording = true
**.wlan[*].*.scalar-recording = false
**.radioMedium.*.scalar-recording = false
**.mobility.*.scalar-recording = false

*.normal_car[*].app[*].scalar-recording = true
*.attacker_car[*].app[*].scalar-recording = true

**.trustManager.detectionTP.result-recording-modes = +sum
**.trustManager.detectionFP.result-recording-modes = +sum
**.trustManager.detectionFN.result-recording-modes = +sum
**.trustManager.detectionTN.result-recording-modes = +sum

**.mitigationManager.blacklistTP.result-recording-modes = +sum
**.mitigationManager.blacklistFP.result-recording-modes = +sum
**.mitigationManager.blacklistFN.result-recording-modes = +sum

# ============================================================
# SCENARIO 1  NO ATTACK
# ============================================================

[Config S1_NoAttack_Small]
description = "Baseline AODV puro - Small (25 nodi)"
*.manager.launchConfig = xmldoc("arcavacatamap_small_noattack.launchd.xml")
*.manager.moduleType = "normal_car=networkprojectvanet.veins_inet.AodvCar slow_car=networkprojectvanet.veins_inet.AodvCar *=networkprojectvanet.veins_inet.AodvCar"
*.manager.moduleName = "normal_car=normal_car slow_car=normal_car *=normal_car"
*.manager.moduleDisplayString = "normal_car='i=veins/node/car;is=vs' slow_car='i=veins/node/car;is=vs' *='i=veins/node/car;is=vs'"
# --- Coppie UDP originali (3 flussi) ---
# --- Coppie UDP originali (3 flussi) ---
*.normal_car[10].numApps = 2
*.normal_car[10].app[0].typename = "UdpSink"
*.normal_car[10].app[0].localPort = 5000
*.normal_car[10].app[1].typename = "UdpBasicApp"
*.normal_car[10].app[1].destAddresses = "normal_car[8]"
*.normal_car[10].app[1].localPort = 5001
*.normal_car[10].app[1].destPort = 5000
*.normal_car[10].app[1].messageLength = 512B
*.normal_car[10].app[1].sendInterval = 1s
*.normal_car[10].app[1].startTime = 110s
*.normal_car[10].app[1].packetName = "UDPData"

*.normal_car[14].numApps = 2
*.normal_car[14].app[0].typename = "UdpSink"
*.normal_car[14].app[0].localPort = 5000
*.normal_car[14].app[1].typename = "UdpBasicApp"
*.normal_car[14].app[1].destAddresses = "normal_car[9]"
*.normal_car[14].app[1].localPort = 5001
*.normal_car[14].app[1].destPort = 5000
*.normal_car[14].app[1].messageLength = 512B
*.normal_car[14].app[1].sendInterval = 1s
*.normal_car[14].app[1].startTime = 150s
*.normal_car[14].app[1].packetName = "UDPData"

*.normal_car[24].numApps = 2
*.normal_car[24].app[0].typename = "UdpSink"
*.normal_car[24].app[0].localPort = 5000
*.normal_car[24].app[1].typename = "UdpBasicApp"
*.normal_car[24].app[1].destAddresses = "normal_car[16]"
*.normal_car[24].app[1].localPort = 5001
*.normal_car[24].app[1].destPort = 5000
*.normal_car[24].app[1].messageLength = 512B
*.normal_car[24].app[1].sendInterval = 1s
*.normal_car[24].app[1].startTime = 205s
*.normal_car[24].app[1].packetName = "UDPData"

# ============================================================
# SCENARIO 2  ATTACK GRAYHOLE PURO
# ============================================================
# ============================================================
# SCENARIO 2 – ATTACK GRAYHOLE PURO
# ============================================================

[Config S2_Attack_Small_8pct]
description = "Grayhole puro - Small 8%"
*.manager.launchConfig = xmldoc("arcavacatamap_small_8pct.launchd.xml")
*.manager.moduleType = "slow_car=networkprojectvanet.veins_inet.AodvCar attacker_car=networkprojectvanet.grayhole.grayhole_attack.AttackerAodvGrayholeCar *=networkprojectvanet.veins_inet.AodvCar"
*.manager.moduleName = "slow_car=normal_car attacker_car=attacker_car *=normal_car"
*.manager.moduleDisplayString = "slow_car='i=veins/node/car;is=vs' attacker_car='i=veins/node/car,red;is=vs' *='i=veins/node/car;is=vs'"
*.attacker_car[*].forwarding = true
*.attacker_car[*].routing.droppingRate = 70

# --- Impostazioni UDP Comuni ---
*.normal_car[*].numApps = 2
*.normal_car[*].app[1].typename = "UdpBasicApp"
*.normal_car[*].app[1].localPort = 5001
*.normal_car[*].app[1].destPort = 5000
*.normal_car[*].app[1].messageLength = 512B
*.normal_car[*].app[1].sendInterval = 1s
*.normal_car[*].app[1].packetName = "UDPData"

# --- Coppie UDP (23 flussi) ---

*.normal_car[1].app[1].destAddresses = "normal_car[0]"
*.normal_car[1].app[1].startTime = 23s
*.normal_car[2].app[1].destAddresses = "normal_car[0]"
*.normal_car[2].app[1].startTime = 31s
*.normal_car[3].app[1].destAddresses = "normal_car[1]"
*.normal_car[3].app[1].startTime = 39s
*.normal_car[4].app[1].destAddresses = "normal_car[0]"
*.normal_car[4].app[1].startTime = 47s
*.normal_car[5].app[1].destAddresses = "normal_car[1]"
*.normal_car[5].app[1].startTime = 55s
*.normal_car[6].app[1].destAddresses = "normal_car[2]"
*.normal_car[6].app[1].startTime = 63s
*.normal_car[7].app[1].destAddresses = "normal_car[3]"
*.normal_car[7].app[1].startTime = 71s
*.normal_car[8].app[1].destAddresses = "normal_car[4]"
*.normal_car[8].app[1].startTime = 79s
*.normal_car[9].app[1].destAddresses = "normal_car[5]"
*.normal_car[9].app[1].startTime = 87s
*.normal_car[10].app[1].destAddresses = "normal_car[6]"
*.normal_car[10].app[1].startTime = 95s
*.normal_car[11].app[1].destAddresses = "normal_car[7]"
*.normal_car[11].app[1].startTime = 103s
*.normal_car[12].app[1].destAddresses = "normal_car[8]"
*.normal_car[12].app[1].startTime = 111s
*.normal_car[14].app[1].destAddresses = "normal_car[9]"
*.normal_car[14].app[1].startTime = 119s
*.normal_car[15].app[1].destAddresses = "normal_car[10]"
*.normal_car[15].app[1].startTime = 127s
*.normal_car[16].app[1].destAddresses = "normal_car[12]"
*.normal_car[16].app[1].startTime = 135s
*.normal_car[18].app[1].destAddresses = "normal_car[12]"
*.normal_car[18].app[1].startTime = 143s
*.normal_car[19].app[1].destAddresses = "normal_car[14]"
*.normal_car[19].app[1].startTime = 151s
*.normal_car[20].app[1].destAddresses = "normal_car[15]"
*.normal_car[20].app[1].startTime = 159s
*.normal_car[21].app[1].destAddresses = "normal_car[16]"
*.normal_car[21].app[1].startTime = 167s
*.normal_car[22].app[1].destAddresses = "normal_car[18]"
*.normal_car[22].app[1].startTime = 175s
*.normal_car[23].app[1].destAddresses = "normal_car[19]"
*.normal_car[23].app[1].startTime = 183s
*.normal_car[24].app[1].destAddresses = "normal_car[20]"
*.normal_car[24].app[1].startTime = 191s


[Config S2_Attack_Small_15pct]
description = "Grayhole puro - Small 15%"
*.manager.launchConfig = xmldoc("arcavacatamap_small_15pct.launchd.xml")
*.manager.moduleType = "normal_car=networkprojectvanet.veins_inet.AodvCar slow_car=networkprojectvanet.veins_inet.AodvCar *=networkprojectvanet.grayhole.grayhole_attack.AttackerAodvGrayholeCar"
*.manager.moduleName = "normal_car=normal_car slow_car=normal_car *=attacker_car"
*.manager.moduleDisplayString = "normal_car='i=veins/node/car;is=vs' slow_car='i=veins/node/car;is=vs' *='i=veins/node/car,red;is=vs'"
*.attacker_car[*].forwarding = true
*.attacker_car[*].routing.droppingRate = 70

*.normal_car[*].numApps = 2
*.normal_car[*].app[1].typename = "UdpBasicApp"
*.normal_car[*].app[1].localPort = 5001
*.normal_car[*].app[1].destPort = 5000
*.normal_car[*].app[1].messageLength = 512B
*.normal_car[*].app[1].sendInterval = 1s
*.normal_car[*].app[1].packetName = "UDPData"

# --- Coppie UDP (21 flussi) ---
*.normal_car[1].app[1].destAddresses = "normal_car[0]"
*.normal_car[1].app[1].startTime = 23s
*.normal_car[2].app[1].destAddresses = "normal_car[0]"
*.normal_car[2].app[1].startTime = 31s
*.normal_car[3].app[1].destAddresses = "normal_car[1]"
*.normal_car[3].app[1].startTime = 39s
*.normal_car[4].app[1].destAddresses = "normal_car[0]"
*.normal_car[4].app[1].startTime = 47s
*.normal_car[5].app[1].destAddresses = "normal_car[1]"
*.normal_car[5].app[1].startTime = 55s
*.normal_car[6].app[1].destAddresses = "normal_car[2]"
*.normal_car[6].app[1].startTime = 63s
*.normal_car[7].app[1].destAddresses = "normal_car[3]"
*.normal_car[7].app[1].startTime = 71s
*.normal_car[8].app[1].destAddresses = "normal_car[4]"
*.normal_car[8].app[1].startTime = 79s
*.normal_car[9].app[1].destAddresses = "normal_car[5]"
*.normal_car[9].app[1].startTime = 87s
*.normal_car[10].app[1].destAddresses = "normal_car[7]"
*.normal_car[10].app[1].startTime = 95s
*.normal_car[11].app[1].destAddresses = "normal_car[8]"
*.normal_car[11].app[1].startTime = 103s
*.normal_car[14].app[1].destAddresses = "normal_car[10]"
*.normal_car[14].app[1].startTime = 111s
*.normal_car[15].app[1].destAddresses = "normal_car[11]"
*.normal_car[15].app[1].startTime = 119s
*.normal_car[16].app[1].destAddresses = "normal_car[11]"
*.normal_car[16].app[1].startTime = 130s
*.normal_car[19].app[1].destAddresses = "normal_car[14]"
*.normal_car[19].app[1].startTime = 135s
*.normal_car[20].app[1].destAddresses = "normal_car[15]"
*.normal_car[20].app[1].startTime = 143s
*.normal_car[21].app[1].destAddresses = "normal_car[16]"
*.normal_car[21].app[1].startTime = 151s
*.normal_car[22].app[1].destAddresses = "normal_car[16]"
*.normal_car[22].app[1].startTime = 159s
*.normal_car[23].app[1].destAddresses = "normal_car[19]"
*.normal_car[23].app[1].startTime = 167s
*.normal_car[24].app[1].destAddresses = "normal_car[20]"
*.normal_car[24].app[1].startTime = 175s


[Config S2_Attack_Small_30pct]
description = "Grayhole puro - Small 30%"
*.manager.launchConfig = xmldoc("arcavacatamap_small_30pct.launchd.xml")
*.manager.moduleType = "normal_car=networkprojectvanet.veins_inet.AodvCar slow_car=networkprojectvanet.veins_inet.AodvCar *=networkprojectvanet.grayhole.grayhole_attack.AttackerAodvGrayholeCar"
*.manager.moduleName = "normal_car=normal_car slow_car=normal_car *=attacker_car"
*.manager.moduleDisplayString = "normal_car='i=veins/node/car;is=vs' slow_car='i=veins/node/car;is=vs' *='i=veins/node/car,red;is=vs'"
*.attacker_car[*].forwarding = true
*.attacker_car[*].routing.droppingRate = 70

*.normal_car[*].numApps = 2
*.normal_car[*].app[1].typename = "UdpBasicApp"
*.normal_car[*].app[1].localPort = 5001
*.normal_car[*].app[1].destPort = 5000
*.normal_car[*].app[1].messageLength = 512B
*.normal_car[*].app[1].sendInterval = 1s
*.normal_car[*].app[1].packetName = "UDPData"

# --- Coppie UDP (18 flussi) ---

*.normal_car[1].app[1].destAddresses = "normal_car[0]"
*.normal_car[1].app[1].startTime = 23s
*.normal_car[2].app[1].destAddresses = "normal_car[1]"
*.normal_car[2].app[1].startTime = 31s
*.normal_car[3].app[1].destAddresses = "normal_car[1]"
*.normal_car[3].app[1].startTime = 39s
*.normal_car[4].app[1].destAddresses = "normal_car[2]"
*.normal_car[4].app[1].startTime = 47s
*.normal_car[5].app[1].destAddresses = "normal_car[3]"
*.normal_car[5].app[1].startTime = 55s
*.normal_car[8].app[1].destAddresses = "normal_car[4]"
*.normal_car[8].app[1].startTime = 63s
*.normal_car[9].app[1].destAddresses = "normal_car[5]"
*.normal_car[9].app[1].startTime = 71s
*.normal_car[10].app[1].destAddresses = "normal_car[8]"
*.normal_car[10].app[1].startTime = 79s
*.normal_car[11].app[1].destAddresses = "normal_car[9]"
*.normal_car[11].app[1].startTime = 87s
*.normal_car[14].app[1].destAddresses = "normal_car[10]"
*.normal_car[14].app[1].startTime = 95s
*.normal_car[15].app[1].destAddresses = "normal_car[10]"
*.normal_car[15].app[1].startTime = 103s
*.normal_car[16].app[1].destAddresses = "normal_car[11]"
*.normal_car[16].app[1].startTime = 111s
*.normal_car[19].app[1].destAddresses = "normal_car[14]"
*.normal_car[19].app[1].startTime = 119s
*.normal_car[20].app[1].destAddresses = "normal_car[15]"
*.normal_car[20].app[1].startTime = 127s
*.normal_car[21].app[1].destAddresses = "normal_car[16]"
*.normal_car[21].app[1].startTime = 135s
*.normal_car[23].app[1].destAddresses = "normal_car[19]"
*.normal_car[23].app[1].startTime = 143s
*.normal_car[24].app[1].destAddresses = "normal_car[20]"
*.normal_car[24].app[1].startTime = 151s


[Config S2_Attack_Small_40pct]
description = "Grayhole puro - Small 40%"
*.manager.launchConfig = xmldoc("arcavacatamap_small_40pct.launchd.xml")
*.manager.moduleType = "normal_car=networkprojectvanet.veins_inet.AodvCar slow_car=networkprojectvanet.veins_inet.AodvCar *=networkprojectvanet.grayhole.grayhole_attack.AttackerAodvGrayholeCar"
*.manager.moduleName = "normal_car=normal_car slow_car=normal_car *=attacker_car"
*.manager.moduleDisplayString = "normal_car='i=veins/node/car;is=vs' slow_car='i=veins/node/car;is=vs' *='i=veins/node/car,red;is=vs'"
*.attacker_car[*].forwarding = true
*.attacker_car[*].routing.droppingRate = 70

*.normal_car[*].numApps = 2
*.normal_car[*].app[1].typename = "UdpBasicApp"
*.normal_car[*].app[1].localPort = 5001
*.normal_car[*].app[1].destPort = 5000
*.normal_car[*].app[1].messageLength = 512B
*.normal_car[*].app[1].sendInterval = 1s
*.normal_car[*].app[1].packetName = "UDPData"

# --- Coppie UDP (15 flussi) ---
*.normal_car[1].app[1].destAddresses = "normal_car[0]"
*.normal_car[1].app[1].startTime = 23s
*.normal_car[2].app[1].destAddresses = "normal_car[0]"
*.normal_car[2].app[1].startTime = 31s
*.normal_car[3].app[1].destAddresses = "normal_car[1]"
*.normal_car[3].app[1].startTime = 39s
*.normal_car[4].app[1].destAddresses = "normal_car[2]"
*.normal_car[4].app[1].startTime = 47s
*.normal_car[8].app[1].destAddresses = "normal_car[4]"
*.normal_car[8].app[1].startTime = 55s
*.normal_car[9].app[1].destAddresses = "normal_car[4]"
*.normal_car[9].app[1].startTime = 63s
*.normal_car[10].app[1].destAddresses = "normal_car[8]"
*.normal_car[10].app[1].startTime = 71s
*.normal_car[14].app[1].destAddresses = "normal_car[10]"
*.normal_car[14].app[1].startTime = 79s
*.normal_car[15].app[1].destAddresses = "normal_car[9]"
*.normal_car[15].app[1].startTime = 87s
*.normal_car[16].app[1].destAddresses = "normal_car[10]"
*.normal_car[16].app[1].startTime = 95s
*.normal_car[19].app[1].destAddresses = "normal_car[15]"
*.normal_car[19].app[1].startTime = 103s
*.normal_car[20].app[1].destAddresses = "normal_car[16]"
*.normal_car[20].app[1].startTime = 111s
*.normal_car[23].app[1].destAddresses = "normal_car[19]"
*.normal_car[23].app[1].startTime = 119s
*.normal_car[24].app[1].destAddresses = "normal_car[20]"
*.normal_car[24].app[1].startTime = 127s

[Config S2_Attack_Small_50pct]
description = "Grayhole puro - Small 50%"
*.manager.launchConfig = xmldoc("arcavacatamap_small_50pct.launchd.xml")
*.manager.moduleType = "normal_car=networkprojectvanet.veins_inet.AodvCar slow_car=networkprojectvanet.veins_inet.AodvCar *=networkprojectvanet.grayhole.grayhole_attack.AttackerAodvGrayholeCar"
*.manager.moduleName = "normal_car=normal_car slow_car=normal_car *=attacker_car"
*.manager.moduleDisplayString = "normal_car='i=veins/node/car;is=vs' slow_car='i=veins/node/car;is=vs' *='i=veins/node/car,red;is=vs'"
*.attacker_car[*].forwarding = true
*.attacker_car[*].routing.droppingRate = 70

*.normal_car[*].numApps = 2
*.normal_car[*].app[1].typename = "UdpBasicApp"
*.normal_car[*].app[1].localPort = 5001
*.normal_car[*].app[1].destPort = 5000
*.normal_car[*].app[1].messageLength = 512B
*.normal_car[*].app[1].sendInterval = 1s
*.normal_car[*].app[1].packetName = "UDPData"

# --- Coppie UDP (12 flussi) ---

*.normal_car[1].app[1].destAddresses = "normal_car[0]"
*.normal_car[1].app[1].startTime = 23s
*.normal_car[2].app[1].destAddresses = "normal_car[1]"
*.normal_car[2].app[1].startTime = 31s
*.normal_car[3].app[1].destAddresses = "normal_car[2]"
*.normal_car[3].app[1].startTime = 39s
*.normal_car[8].app[1].destAddresses = "normal_car[1]"
*.normal_car[8].app[1].startTime = 47s
*.normal_car[9].app[1].destAddresses = "normal_car[2]"
*.normal_car[9].app[1].startTime = 55s
*.normal_car[10].app[1].destAddresses = "normal_car[3]"
*.normal_car[10].app[1].startTime = 63s
*.normal_car[14].app[1].destAddresses = "normal_car[10]"
*.normal_car[14].app[1].startTime = 71s
*.normal_car[16].app[1].destAddresses = "normal_car[10]"
*.normal_car[16].app[1].startTime = 79s
*.normal_car[19].app[1].destAddresses = "normal_car[14]"
*.normal_car[19].app[1].startTime = 87s
*.normal_car[20].app[1].destAddresses = "normal_car[16]"
*.normal_car[20].app[1].startTime = 95s
*.normal_car[23].app[1].destAddresses = "normal_car[19]"
*.normal_car[23].app[1].startTime = 103s


[Config S2_Attack_Small_60pct]
description = "Grayhole puro - Small 60%"
*.manager.launchConfig = xmldoc("arcavacatamap_small_60pct.launchd.xml")
*.manager.moduleType = "normal_car=networkprojectvanet.veins_inet.AodvCar slow_car=networkprojectvanet.veins_inet.AodvCar *=networkprojectvanet.grayhole.grayhole_attack.AttackerAodvGrayholeCar"
*.manager.moduleName = "normal_car=normal_car slow_car=normal_car *=attacker_car"
*.manager.moduleDisplayString = "normal_car='i=veins/node/car;is=vs' slow_car='i=veins/node/car;is=vs' *='i=veins/node/car,red;is=vs'"
*.attacker_car[*].forwarding = true
*.attacker_car[*].routing.droppingRate = 70

*.normal_car[*].numApps = 2
*.normal_car[*].app[1].typename = "UdpBasicApp"
*.normal_car[*].app[1].localPort = 5001
*.normal_car[*].app[1].destPort = 5000
*.normal_car[*].app[1].messageLength = 512B
*.normal_car[*].app[1].sendInterval = 1s
*.normal_car[*].app[1].packetName = "UDPData"

# --- Coppie UDP (10 flussi) ---

*.normal_car[2].app[1].destAddresses = "normal_car[1]"
*.normal_car[2].app[1].startTime = 23s
*.normal_car[8].app[1].destAddresses = "normal_car[2]"
*.normal_car[8].app[1].startTime = 31s
*.normal_car[9].app[1].destAddresses = "normal_car[2]"
*.normal_car[9].app[1].startTime = 39s
*.normal_car[10].app[1].destAddresses = "normal_car[8]"
*.normal_car[10].app[1].startTime = 47s
*.normal_car[14].app[1].destAddresses = "normal_car[10]"
*.normal_car[14].app[1].startTime = 55s
*.normal_car[16].app[1].destAddresses = "normal_car[10]"
*.normal_car[16].app[1].startTime = 63s
*.normal_car[19].app[1].destAddresses = "normal_car[16]"
*.normal_car[19].app[1].startTime = 71s
*.normal_car[20].app[1].destAddresses = "normal_car[16]"
*.normal_car[20].app[1].startTime = 79s
*.normal_car[23].app[1].destAddresses = "normal_car[19]"
*.normal_car[23].app[1].startTime = 87s


# ============================================================
# SCENARIO 3  NO ATTACK + TRUST PASSIVA
# ============================================================

[Config S3_NoAttack_Trust_Small]
description = "Nessun attacco + Trust passiva - Small"
*.manager.launchConfig = xmldoc("arcavacatamap_small_noattack.launchd.xml")
*.manager.moduleType = "normal_car=networkprojectvanet.grayhole.grayhole_mitigation.TrustAwareAodvCar slow_car=networkprojectvanet.grayhole.grayhole_mitigation.TrustAwareAodvCar *=networkprojectvanet.grayhole.grayhole_mitigation.TrustAwareAodvCar"
*.manager.moduleName = "normal_car=normal_car slow_car=normal_car *=normal_car"
*.manager.moduleDisplayString = "normal_car='i=veins/node/car;is=vs' slow_car='i=veins/node/car;is=vs' *='i=veins/node/car;is=vs'"
*.normal_car[*].routing.trustBasedRoutingEnabled = true
*.normal_car[*].routing.enableHopCountTracking = true
*.normal_car[*].trustManager.attackerNodeIds = ""
*.normal_car[*].trustManager.useAdaptiveThreshold = true
# --- Coppie UDP originali (3 flussi) ---
*.normal_car[10].numApps = 2
*.normal_car[10].app[0].typename = "UdpSink"
*.normal_car[10].app[0].localPort = 5000
*.normal_car[10].app[1].typename = "UdpBasicApp"
*.normal_car[10].app[1].destAddresses = "normal_car[8]"
*.normal_car[10].app[1].localPort = 5001
*.normal_car[10].app[1].destPort = 5000
*.normal_car[10].app[1].messageLength = 512B
*.normal_car[10].app[1].sendInterval = 1s
*.normal_car[10].app[1].startTime = 110s
*.normal_car[10].app[1].packetName = "UDPData"

*.normal_car[14].numApps = 2
*.normal_car[14].app[0].typename = "UdpSink"
*.normal_car[14].app[0].localPort = 5000
*.normal_car[14].app[1].typename = "UdpBasicApp"
*.normal_car[14].app[1].destAddresses = "normal_car[9]"
*.normal_car[14].app[1].localPort = 5001
*.normal_car[14].app[1].destPort = 5000
*.normal_car[14].app[1].messageLength = 512B
*.normal_car[14].app[1].sendInterval = 1s
*.normal_car[14].app[1].startTime = 150s
*.normal_car[14].app[1].packetName = "UDPData"

*.normal_car[24].numApps = 2
*.normal_car[24].app[0].typename = "UdpSink"
*.normal_car[24].app[0].localPort = 5000
*.normal_car[24].app[1].typename = "UdpBasicApp"
*.normal_car[24].app[1].destAddresses = "normal_car[16]"
*.normal_car[24].app[1].localPort = 5001
*.normal_car[24].app[1].destPort = 5000
*.normal_car[24].app[1].messageLength = 512B
*.normal_car[24].app[1].sendInterval = 1s
*.normal_car[24].app[1].startTime = 205s
*.normal_car[24].app[1].packetName = "UDPData"


# ============================================================
# SCENARIO 4  ATTACK + TRUST PASSIVA
# ============================================================

[Config S4_Attack_Trust_Small_8pct]
description = "Grayhole + Trust passiva - Small 8%"
*.manager.launchConfig = xmldoc("arcavacatamap_small_8pct.launchd.xml")
*.manager.moduleType = "normal_car=networkprojectvanet.grayhole.grayhole_mitigation.TrustAwareAodvCar slow_car=networkprojectvanet.grayhole.grayhole_mitigation.TrustAwareAodvCar *=networkprojectvanet.grayhole.grayhole_attackwithtrust.AttackerTrustAwareAodvCar"
*.manager.moduleName = "normal_car=normal_car slow_car=normal_car *=attacker_car"
*.manager.moduleDisplayString = "normal_car='i=veins/node/car;is=vs' slow_car='i=veins/node/car;is=vs' *='i=veins/node/car,red;is=vs'"
*.normal_car[*].routing.trustBasedRoutingEnabled = true
*.normal_car[*].routing.enableHopCountTracking = true
*.attacker_car[*].routing.droppingRate = 70
*.attacker_car[*].forwarding = true
*.normal_car[*].trustManager.attackerNodeIds = "67 235"
*.normal_car[*].trustManager.useAdaptiveThreshold = true

*.normal_car[*].numApps = 2
*.normal_car[*].app[1].typename = "UdpBasicApp"
*.normal_car[*].app[1].localPort = 5001
*.normal_car[*].app[1].destPort = 5000
*.normal_car[*].app[1].messageLength = 512B
*.normal_car[*].app[1].sendInterval = 1s
*.normal_car[*].app[1].packetName = "UDPData"

# --- Coppie UDP (23 flussi) ---

*.normal_car[1].app[1].destAddresses = "normal_car[0]"
*.normal_car[1].app[1].startTime = 23s
*.normal_car[2].app[1].destAddresses = "normal_car[0]"
*.normal_car[2].app[1].startTime = 31s
*.normal_car[3].app[1].destAddresses = "normal_car[1]"
*.normal_car[3].app[1].startTime = 39s
*.normal_car[4].app[1].destAddresses = "normal_car[0]"
*.normal_car[4].app[1].startTime = 47s
*.normal_car[5].app[1].destAddresses = "normal_car[1]"
*.normal_car[5].app[1].startTime = 55s
*.normal_car[6].app[1].destAddresses = "normal_car[2]"
*.normal_car[6].app[1].startTime = 63s
*.normal_car[7].app[1].destAddresses = "normal_car[3]"
*.normal_car[7].app[1].startTime = 71s
*.normal_car[8].app[1].destAddresses = "normal_car[4]"
*.normal_car[8].app[1].startTime = 79s
*.normal_car[9].app[1].destAddresses = "normal_car[5]"
*.normal_car[9].app[1].startTime = 87s
*.normal_car[10].app[1].destAddresses = "normal_car[6]"
*.normal_car[10].app[1].startTime = 95s
*.normal_car[11].app[1].destAddresses = "normal_car[7]"
*.normal_car[11].app[1].startTime = 103s
*.normal_car[12].app[1].destAddresses = "normal_car[8]"
*.normal_car[12].app[1].startTime = 111s
*.normal_car[14].app[1].destAddresses = "normal_car[9]"
*.normal_car[14].app[1].startTime = 119s
*.normal_car[15].app[1].destAddresses = "normal_car[10]"
*.normal_car[15].app[1].startTime = 127s
*.normal_car[16].app[1].destAddresses = "normal_car[12]"
*.normal_car[16].app[1].startTime = 135s
*.normal_car[18].app[1].destAddresses = "normal_car[12]"
*.normal_car[18].app[1].startTime = 143s
*.normal_car[19].app[1].destAddresses = "normal_car[14]"
*.normal_car[19].app[1].startTime = 151s
*.normal_car[20].app[1].destAddresses = "normal_car[15]"
*.normal_car[20].app[1].startTime = 159s
*.normal_car[21].app[1].destAddresses = "normal_car[16]"
*.normal_car[21].app[1].startTime = 167s
*.normal_car[22].app[1].destAddresses = "normal_car[18]"
*.normal_car[22].app[1].startTime = 175s
*.normal_car[23].app[1].destAddresses = "normal_car[19]"
*.normal_car[23].app[1].startTime = 183s
*.normal_car[24].app[1].destAddresses = "normal_car[20]"
*.normal_car[24].app[1].startTime = 191s


[Config S4_Attack_Trust_Small_15pct]
description = "Grayhole + Trust passiva - Small 15%"
*.manager.launchConfig = xmldoc("arcavacatamap_small_15pct.launchd.xml")