[General]
network = networkprojectvanet.simulations.grayhole.Scenario

# ============================================
# LOG — verboso per il debug iniziale
# ============================================
cmdenv-express-mode = false
cmdenv-status-frequency = 10s

# ============================================
# SIMULAZIONE
# ============================================
sim-time-limit = 300s
warmup-period = 10s
repeat = 1
seed-set = ${repetition}

# ============================================
# IP E ROUTING
# ============================================
*.*_car[*].ipv4.arp.typename = "Arp"

*.normal_car[*].ipv4.ip.forwarding = true
*.normal_car[*].ipv4.ip.procDelay = 0s
*.attacker_car[*].ipv4.ip.forwarding = true
*.attacker_car[*].ipv4.ip.procDelay = 0s

# ============================================
# Disabilita rotte automatiche
# ============================================
*.normal_car[*].ipv4.routingTable.routingFile = ""
*.normal_car[*].ipv4.routingTable.netmaskRoutes = ""
*.normal_car[*].ipv4.configurator.addDefaultRoutes = false
*.normal_car[*].ipv4.configurator.addStaticRoutes = false
*.normal_car[*].ipv4.configurator.addSubnetRoutes = false

*.attacker_car[*].ipv4.routingTable.routingFile = ""
*.attacker_car[*].ipv4.routingTable.netmaskRoutes = ""
*.attacker_car[*].ipv4.configurator.addDefaultRoutes = false
*.attacker_car[*].ipv4.configurator.addStaticRoutes = false
*.attacker_car[*].ipv4.configurator.addSubnetRoutes = false

# ============================================
# AODV — parametri comuni
# ============================================
*.*_car[*].routing.useHelloMessages = true
*.*_car[*].routing.maxQueuedPackets = 100
*.*_car[*].routing.maxQueueTime = 60s
*.*_car[*].routing.activeRouteTimeout = 5s
*.*_car[*].routing.helloInterval = 2s
*.*_car[*].routing.allowedHelloLoss = 3
*.*_car[*].routing.netDiameter = 35
*.*_car[*].routing.rreqRetries = 2
*.*_car[*].routing.rreqRatelimit = 10
*.*_car[*].routing.destinationOnlyFlag = false
*.*_car[*].routing.deletePeriod = 5s

# ============================================
# NUOVO MODELLO TRUST — parametri comuni
# ============================================
*.*_car[*].routing.enableTrustRouting = true
*.*_car[*].routing.warmupPacketLimit = 30

*.*_car[*].trustManager.initialTrust = 1.0

*.*_car[*].trustMonitor.cleanupTimeout = 10s

# ============================================
# WIRELESS
# ============================================
*.*_car[*].wlan[*].typename = "AckingWirelessInterface"
*.*_car[*].wlan[*].bitrate = 2Mbps
*.*_car[*].wlan[*].mac.headerLength = 23B
*.*_car[*].wlan[*].radio.typename = "UnitDiskRadio"
*.*_car[*].wlan[*].radio.transmitter.headerLength = 96b
*.*_car[*].wlan[*].radio.transmitter.communicationRange = 350m
*.*_car[*].wlan[*].radio.transmitter.interferenceRange = 0m
*.*_car[*].wlan[*].radio.transmitter.detectionRange = 0m
*.*_car[*].wlan[*].radio.receiver.ignoreInterference = true

# ============================================
# HOST AUTO CONFIGURATOR
# ============================================
*.*_car[*].ipv4.configurator.typename = "HostAutoConfigurator"
*.*_car[*].ipv4.configurator.interfaces = "wlan0"
*.*_car[*].ipv4.configurator.mcastGroups = "224.0.0.1"

# ============================================
# APPLICAZIONI UDP — stessa configurazione
# ============================================
# Coppia 1: normal_car[10] → normal_car[8]
*.normal_car[10].numApps = 1
*.normal_car[10].app[0].typename = "UdpBasicApp"
*.normal_car[10].app[0].destAddresses = "normal_car[8]"
*.normal_car[10].app[0].localPort = 5000
*.normal_car[10].app[0].destPort = 5000
*.normal_car[10].app[0].messageLength = 512B
*.normal_car[10].app[0].sendInterval = 0.25s
*.normal_car[10].app[0].startTime = 110s
*.normal_car[10].app[0].packetName = "UDPData"

# Coppia 2: normal_car[14] → normal_car[9]
*.normal_car[14].numApps = 1
*.normal_car[14].app[0].typename = "UdpBasicApp"
*.normal_car[14].app[0].destAddresses = "normal_car[9]"
*.normal_car[14].app[0].localPort = 5000
*.normal_car[14].app[0].destPort = 5000
*.normal_car[14].app[0].messageLength = 512B
*.normal_car[14].app[0].sendInterval = 0.25s
*.normal_car[14].app[0].startTime = 150s
*.normal_car[14].app[0].packetName = "UDPData"

# Coppia 3: normal_car[20] → normal_car[16]
*.normal_car[20].numApps = 1
*.normal_car[20].app[0].typename = "UdpBasicApp"
*.normal_car[20].app[0].destAddresses = "normal_car[16]"
*.normal_car[20].app[0].localPort = 5000
*.normal_car[20].app[0].destPort = 5000
*.normal_car[20].app[0].messageLength = 512B
*.normal_car[20].app[0].sendInterval = 0.25s
*.normal_car[20].app[0].startTime = 205s
*.normal_car[20].app[0].packetName = "UDPData"

# Tutti gli altri ascoltano
*.normal_car[*].numApps = 1
*.normal_car[*].app[0].typename = "UdpSink"
*.normal_car[*].app[0].localPort = 5000

*.attacker_car[*].numApps = 1
*.attacker_car[*].app[0].typename = "UdpSink"
*.attacker_car[*].app[0].localPort = 5000

# ============================================
# MOBILITY
# ============================================
*.*_car[*].mobility.typename = "VeinsInetMobility"

# ============================================
# VEINS INET MANAGER
# ============================================
*.manager.updateInterval = 0.1s

# ============================================
# STATISTICHE — minimali per il test
# ============================================
**.vector-recording = false
**.scalar-recording = true
**.wlan[*].*.scalar-recording = false
**.radioMedium.*.scalar-recording = false
**.mobility.*.scalar-recording = false
*.normal_car[*].app[*].scalar-recording = true
*.attacker_car[*].app[*].scalar-recording = true

# ============================================================
# SCENARIO T1 — NUOVO MODELLO, NESSUN ATTACCO
# Verifica che il routing trust-based funzioni correttamente
# senza attaccanti: delivery ratio deve essere ~100%
# ============================================================
[Config T1_NewTrust_NoAttack]
description = "Nuovo modello trust - nessun attacco"
*.manager.launchConfig = xmldoc("arcavacatamap_small_noattack.launchd.xml")
*.manager.moduleType = "normal_car=networkprojectvanet.grayhole.grayhole_mitigation.TrustAwareAodvCar slow_car=networkprojectvanet.grayhole.grayhole_mitigation.TrustAwareAodvCar *=networkprojectvanet.grayhole.grayhole_mitigation.TrustAwareAodvCar"
*.manager.moduleName = "normal_car=normal_car slow_car=normal_car *=normal_car"
*.manager.moduleDisplayString = "normal_car='i=veins/node/car;is=vs' slow_car='i=veins/node/car;is=vs' *='i=veins/node/car;is=vs'"

# ============================================================
# SCENARIO T2 — NUOVO MODELLO, CON ATTACCO
# Verifica che lo score (1-T_glob)*hop isoli progressivamente
# l'attaccante dopo il warmup
# ============================================================
[Config T2_NewTrust_Attack]
description = "Nuovo modello trust - con attacco 8%"
*.manager.launchConfig = xmldoc("arcavacatamap_small_8pct.launchd.xml")
*.manager.moduleType = "normal_car=networkprojectvanet.grayhole.grayhole_mitigation.TrustAwareAodvCar slow_car=networkprojectvanet.grayhole.grayhole_mitigation.TrustAwareAodvCar *=networkprojectvanet.grayhole.grayhole_attackwithtrust.AttackerTrustAwareAodvCar"
*.manager.moduleName = "normal_car=normal_car slow_car=normal_car *=attacker_car"
*.manager.moduleDisplayString = "normal_car='i=veins/node/car;is=vs' slow_car='i=veins/node/car;is=vs' *='i=veins/node/car,red;is=vs'"

*.attacker_car[*].routing.droppingRate = 70
*.attacker_car[*].forwarding = true