<?xml version="1.0" encoding="UTF-8"?>

<!-- generated on 2023-04-22 12:25:21 by Eclipse SUMO netconvert Version 1.11.0
<configuration xmlns:xsi="http://www.w3.org/2001/XMLSchema-instance" xsi:noNamespaceSchemaLocation="http://sumo.dlr.de/xsd/netconvertConfiguration.xsd">

    <input>
        <osm-files value="map.osm"/>
    </input>

    <output>
        <output-file value="arcavacatamap.net.xml"/>
    </output>

    <projection>
        <proj.utm value="true"/>
    </projection>

    <processing>
        <geometry.remove value="true"/>
        <roundabouts.guess value="true"/>
    </processing>

    <tls_building>
        <tls.discard-simple value="true"/>
        <tls.join value="true"/>
        <tls.guess-signals value="true"/>
    </tls_building>

    <ramp_guessing>
        <ramps.guess value="true"/>
    </ramp_guessing>

    <junctions>
        <junctions.join value="true"/>
    </junctions>

    <report>
        <aggregate-warnings value="5"/>
    </report>

</configuration>
-->

<net version="1.9" junctionCornerDetail="5" limitTurnSpeed="5.50" xmlns:xsi="http://www.w3.org/2001/XMLSchema-instance" xsi:noNamespaceSchemaLocation="http://sumo.dlr.de/xsd/net_file.xsd">

    <location netOffset="-602512.60,-4356270.99" convBoundary="0.00,0.00,3970.43,3173.94" origBoundary="16.189996,39.349715,16.236258,39.378008" projParameter="+proj=utm +zone=33 +ellps=WGS84 +datum=WGS84 +units=m +no_defs"/>

    <type id="highway.bridleway" priority="1" numLanes="1" speed="2.78" allow="pedestrian" oneway="1" width="2.00"/>
    <type id="highway.bus_guideway" priority="1" numLanes="1" speed="27.78" allow="bus" oneway="1"/>
    <type id="highway.cycleway" priority="1" numLanes="1" speed="8.33" allow="bicycle" oneway="0" width="1.00"/>
    <type id="highway.footway" priority="1" numLanes="1" speed="2.78" allow="pedestrian" oneway="1" width="2.00"/>
    <type id="highway.ford" priority="1" numLanes="1" speed="2.78" allow="army" oneway="0"/>
    <type id="highway.living_street" priority="2" numLanes="1" speed="2.78" disallow="tram rail_urban rail rail_electric rail_fast ship" oneway="0"/>
    <type id="highway.motorway" priority="14" numLanes="2" speed="39.44" allow="private emergency authority army vip passenger hov taxi bus coach delivery truck trailer motorcycle evehicle custom1 custom2" oneway="1"/>
    <type id="highway.motorway_link" priority="9" numLanes="1" speed="22.22" allow="private emergency authority army vip passenger hov taxi bus coach delivery truck trailer motorcycle evehicle custom1 custom2" oneway="1"/>
    <type id="highway.path" priority="1" numLanes="1" speed="2.78" allow="pedestrian bicycle" oneway="0" width="2.00"/>
    <type id="highway.pedestrian" priority="1" numLanes="1" speed="2.78" allow="pedestrian" oneway="1" width="2.00"/>
    <type id="highway.primary" priority="12" numLanes="2" speed="27.78" disallow="tram rail_urban rail rail_electric rail_fast ship" oneway="0"/>
    <type id="highway.primary_link" priority="7" numLanes="1" speed="22.22" disallow="tram rail_urban rail rail_electric rail_fast ship" oneway="0"/>
    <type id="highway.raceway" priority="15" numLanes="2" speed="83.33" allow="vip" oneway="0"/>
    <type id="highway.residential" priority="3" numLanes="1" speed="13.89" disallow="tram rail_urban rail rail_electric rail_fast ship" oneway="0"/>
    <type id="highway.secondary" priority="11" numLanes="1" speed="27.78" disallow="tram rail_urban rail rail_electric rail_fast ship" oneway="0"/>
    <type id="highway.secondary_link" priority="6" numLanes="1" speed="22.22" disallow="tram rail_urban rail rail_electric rail_fast ship" oneway="0"/>
    <type id="highway.service" priority="1" numLanes="1" speed="5.56" allow="pedestrian delivery bicycle" oneway="0"/>
    <type id="highway.stairs" priority="1" numLanes="1" speed="1.39" allow="pedestrian" oneway="1" width="2.00"/>
    <type id="highway.step" priority="1" numLanes="1" speed="1.39" allow="pedestrian" oneway="1" width="2.00"/>
    <type id="highway.steps" priority="1" numLanes="1" speed="1.39" allow="pedestrian" oneway="1" width="2.00"/>
    <type id="highway.tertiary" priority="10" numLanes="1" speed="22.22" disallow="tram rail_urban rail rail_electric rail_fast ship" oneway="0"/>
    <type id="highway.tertiary_link" priority="5" numLanes="1" speed="22.22" disallow="tram rail_urban rail rail_electric rail_fast ship" oneway="0"/>
    <type id="highway.track" priority="1" numLanes="1" speed="5.56" allow="pedestrian motorcycle moped bicycle" oneway="0"/>
    <type id="highway.trunk" priority="13" numLanes="2" speed="27.78" disallow="pedestrian bicycle tram rail_urban rail rail_electric rail_fast ship" oneway="0"/>
    <type id="highway.trunk_link" priority="8" numLanes="1" speed="22.22" disallow="pedestrian bicycle tram rail_urban rail rail_electric rail_fast ship" oneway="0"/>
    <type id="highway.unclassified" priority="4" numLanes="1" speed="13.89" disallow="tram rail_urban rail rail_electric rail_fast ship" oneway="0"/>
    <type id="highway.unsurfaced" priority="1" numLanes="1" speed="8.33" disallow="tram rail_urban rail rail_electric rail_fast ship" oneway="0"/>
    <type id="railway.highspeed" priority="21" numLanes="1" speed="69.44" allow="rail_fast" oneway="1"/>
    <type id="railway.light_rail" priority="19" numLanes="1" speed="27.78" allow="rail_urban" oneway="1"/>
    <type id="railway.preserved" priority="16" numLanes="1" speed="27.78" allow="rail" oneway="1"/>
    <type id="railway.rail" priority="20" numLanes="1" speed="44.44" allow="rail" oneway="1"/>
    <type id="railway.subway" priority="18" numLanes="1" speed="27.78" allow="rail_urban" oneway="1"/>
    <type id="railway.tram" priority="17" numLanes="1" speed="13.89" allow="tram" oneway="1"/>

    <edge id=":10587676534_0" function="internal">
        <lane id=":10587676534_0_0" index="0" disallow="tram rail_urban rail rail_electric rail_fast ship" speed="3.65" length="4.67" shape="2353.95,1016.36 2354.58,1017.65 2354.53,1018.54 2353.78,1019.04 2352.34,1019.13"/>
    </edge>
    <edge id=":10587676538_0" function="internal">
        <lane id=":10587676538_0_0" index="0" disallow="tram rail_urban rail rail_electric rail_fast ship" speed="3.65" length="4.67" shape="2285.55,972.78 2285.12,974.16 2284.47,974.77 2283.58,974.61 2282.48,973.68"/>
    </edge>
    <edge id=":10587676542_0" function="internal">
        <lane id=":10587676542_0_0" index="0" disallow="tram rail_urban rail rail_electric rail_fast ship" speed="3.65" length="4.67" shape="2230.51,1038.79 2229.99,1037.45 2230.12,1036.56 2230.91,1036.14 2232.35,1036.17"/>
    </edge>
    <edge id=":10587676545_0" function="internal">
        <lane id=":10587676545_0_0" index="0" disallow="tram rail_urban rail rail_electric rail_fast ship" speed="13.89" length="14.07" shape="2149.07,1002.92 2141.62,1014.85"/>
    </edge>
    <edge id=":10587676545_1" function="internal">
        <lane id=":10587676545_1_0" index="0" disallow="tram rail_urban rail rail_electric rail_fast ship" speed="7.86" length="5.74" shape="2149.07,1002.92 2146.60,1005.82 2144.86,1006.65"/>
    </edge>
    <edge id=":10587676545_2" function="internal">
        <lane id=":10587676545_2_0" index="0" disallow="tram rail_urban rail rail_electric rail_fast ship" speed="3.65" length="2.34" shape="2149.07,1002.92 2147.76,1003.51 2146.87,1003.43"/>
    </edge>
    <edge id=":10587676545_9" function="internal">
        <lane id=":10587676545_9_0" index="0" disallow="tram rail_urban rail rail_electric rail_fast ship" speed="7.86" length="8.34" shape="2144.86,1006.65 2143.78,1007.16 2140.60,1006.96 2137.06,1005.21"/>
    </edge>
    <edge id=":10587676545_10" function="internal">
        <lane id=":10587676545_10_0" index="0" disallow="tram rail_urban rail rail_electric rail_fast ship" speed="3.65" length="2.34" shape="2146.87,1003.43 2146.40,1002.67 2146.36,1001.23"/>
    </edge>
    <edge id=":10587676545_3" function="internal">
        <lane id=":10587676545_3_0" index="0" disallow="tram rail_urban rail rail_electric rail_fast ship" speed="6.34" length="8.77" shape="2138.85,1002.56 2141.08,1003.67 2143.07,1003.82 2144.83,1003.00 2146.36,1001.23"/>
    </edge>
    <edge id=":10587676545_4" function="internal">
        <lane id=":10587676545_4_0" index="0" disallow="tram rail_urban rail rail_electric rail_fast ship" speed="8.13" length="14.25" shape="2138.85,1002.56 2141.78,1005.20 2143.21,1008.13 2143.16,1011.34 2141.62,1014.85"/>
    </edge>
    <edge id=":10587676545_5" function="internal">
        <lane id=":10587676545_5_0" index="0" disallow="tram rail_urban rail rail_electric rail_fast ship" speed="3.65" length="4.67" shape="2138.85,1002.56 2139.40,1003.90 2139.28,1004.79 2138.50,1005.22 2137.06,1005.21"/>
    </edge>
    <edge id=":10587676545_6" function="internal">
        <lane id=":10587676545_6_0" index="0" disallow="tram rail_urban rail rail_electric rail_fast ship" speed="6.66" length="9.23" shape="2138.91,1013.16 2139.89,1010.90 2139.91,1008.82 2138.97,1006.93 2137.06,1005.21"/>
    </edge>
    <edge id=":10587676545_7" function="internal">
        <lane id=":10587676545_7_0" index="0" disallow="tram rail_urban rail rail_electric rail_fast ship" speed="13.89" length="14.07" shape="2138.91,1013.16 2146.36,1001.23"/>
    </edge>
    <edge id=":10587676545_8" function="internal">
        <lane id=":10587676545_8_0" index="0" disallow="tram rail_urban rail rail_electric rail_fast ship" speed="3.65" length="2.34" shape="2138.91,1013.16 2140.22,1012.57 2141.11,1012.65"/>
    </edge>
    <edge id=":10587676545_11" function="internal">
        <lane id=":10587676545_11_0" index="0" disallow="tram rail_urban rail rail_electric rail_fast ship" speed="3.65" length="2.34" shape="2141.11,1012.65 2141.58,1013.41 2141.62,1014.85"/>
    </edge>
    <edge id=":10587676546_0" function="internal">
        <lane id=":10587676546_0_0" index="0" disallow="tram rail_urban rail rail_electric rail_fast ship" speed="3.65" length="4.67" shape="2109.20,986.30 2108.66,984.97 2108.77,984.08 2109.55,983.64 2111.00,983.65"/>
    </edge>
    <edge id=":10587676547_0" function="internal">
        <lane id=":10587676547_0_0" index="0" disallow="tram rail_urban rail rail_electric rail_fast ship" speed="13.89" length="13.87" shape="2166.29,980.91 2157.36,991.52"/>
    </edge>
    <edge id=":10587676547_1" function="internal">
        <lane id=":10587676547_1_0" index="0" disallow="tram rail_urban rail rail_electric rail_fast ship" speed="8.42" length="5.73" shape="2166.29,980.91 2163.49,983.37 2161.59,984.01"/>
    </edge>
    <edge id=":10587676547_2" function="internal">
        <lane id=":10587676547_2_0" index="0" disallow="tram rail_urban rail rail_electric rail_fast ship" speed="3.65" length="2.34" shape="2166.29,980.91 2164.91,981.31 2164.04,981.10"/>
    </edge>
    <edge id=":10587676547_9" function="internal">
        <lane id=":10587676547_9_0" index="0" disallow="tram rail_urban rail rail_electric rail_fast ship" speed="8.42" length="8.65" shape="2161.59,984.01 2160.42,984.41 2157.06,984.05 2153.43,982.28"/>
    </edge>
    <edge id=":10587676547_10" function="internal">
        <lane id=":10587676547_10_0" index="0" disallow="tram rail_urban rail rail_electric rail_fast ship" speed="3.65" length="2.34" shape="2164.04,981.10 2163.68,980.28 2163.84,978.85"/>
    </edge>
    <edge id=":10587676547_3" function="internal">
        <lane id=":10587676547_3_0" index="0" disallow="tram rail_urban rail rail_electric rail_fast ship" speed="7.00" length="9.66" shape="2155.18,979.60 2157.66,980.83 2159.93,981.11 2161.99,980.45 2163.84,978.85"/>
    </edge>
    <edge id=":10587676547_4" function="internal">
        <lane id=":10587676547_4_0" index="0" disallow="tram rail_urban rail rail_electric rail_fast ship" speed="7.69" length="14.21" shape="2155.18,979.60 2158.27,982.28 2159.66,985.16 2159.36,988.24 2157.36,991.52"/>
    </edge>
    <edge id=":10587676547_5" function="internal">
        <lane id=":10587676547_5_0" index="0" disallow="tram rail_urban rail rail_electric rail_fast ship" speed="3.65" length="4.67" shape="2155.18,979.60 2155.75,980.93 2155.64,981.82 2154.87,982.27 2153.43,982.28"/>
    </edge>
    <edge id=":10587676547_6" function="internal">
        <lane id=":10587676547_6_0" index="0" disallow="tram rail_urban rail rail_electric rail_fast ship" speed="6.13" length="8.60" shape="2154.91,989.46 2156.08,987.51 2156.22,985.67 2155.34,983.92 2153.43,982.28"/>
    </edge>
    <edge id=":10587676547_7" function="internal">
        <lane id=":10587676547_7_0" index="0" disallow="tram rail_urban rail rail_electric rail_fast ship" speed="13.89" length="13.87" shape="2154.91,989.46 2163.84,978.85"/>
    </edge>
    <edge id=":10587676547_8" function="internal">
        <lane id=":10587676547_8_0" index="0" disallow="tram rail_urban rail rail_electric rail_fast ship" speed="3.65" length="2.34" shape="2154.91,989.46 2156.30,989.06 2157.17,989.27"/>
    </edge>
    <edge id=":10587676547_11" function="internal">
        <lane id=":10587676547_11_0" index="0" disallow="tram rail_urban rail rail_electric rail_fast ship" speed="3.65" length="2.34" shape="2157.17,989.27 2157.52,990.09 2157.36,991.52"/>
    </edge>
    <edge id=":10587676548_0" function="internal">
        <lane id=":10587676548_0_0" index="0" disallow="tram rail_urban rail rail_electric rail_fast ship" speed="3.65" length="4.67" shape="2129.14,966.33 2128.57,965.00 2128.68,964.11 2129.45,963.66 2130.89,963.65"/>
    </edge>
    <edge id=":10587676551_0" function="internal">
        <lane id=":10587676551_0_0" index="0" disallow="tram rail_urban rail rail_electric rail_fast ship" speed="7.53" length="10.30" shape="2475.58,836.15 2473.23,835.54 2470.96,835.87 2468.78,837.14 2466.69,839.36"/>
    </edge>
    <edge id=":10587676551_1" function="internal">
        <lane id=":10587676551_1_0" index="0" disallow="tram rail_urban rail rail_electric rail_fast ship" speed="13.89" length="14.57" shape="2475.58,836.15 2462.30,830.16"/>
    </edge>
    <edge id=":10587676551_2" function="internal">
        <lane id=":10587676551_2_0" index="0" disallow="tram rail_urban rail rail_electric rail_fast ship" speed="3.65" length="2.34" shape="2475.58,836.15 2474.82,834.93 2474.78,834.04"/>
    </edge>
    <edge id=":10587676551_9" function="internal">
        <lane id=":10587676551_9_0" index="0" disallow="tram rail_urban rail rail_electric rail_fast ship" speed="3.65" length="2.34" shape="2474.78,834.04 2475.48,833.47 2476.90,833.24"/>
    </edge>
    <edge id=":10587676551_3" function="internal">
        <lane id=":10587676551_3_0" index="0" disallow="tram rail_urban rail rail_electric rail_fast ship" speed="13.89" length="14.57" shape="2463.62,827.25 2476.90,833.24"/>
    </edge>
    <edge id=":10587676551_4" function="internal">
        <lane id=":10587676551_4_0" index="0" disallow="tram rail_urban rail rail_electric rail_fast ship" speed="7.65" length="6.06" shape="2463.62,827.25 2467.24,829.55 2468.17,831.05"/>
    </edge>
    <edge id=":10587676551_5" function="internal">
        <lane id=":10587676551_5_0" index="0" disallow="tram rail_urban rail rail_electric rail_fast ship" speed="3.65" length="2.34" shape="2463.62,827.25 2464.38,828.47 2464.42,829.36"/>
    </edge>
    <edge id=":10587676551_10" function="internal">
        <lane id=":10587676551_10_0" index="0" disallow="tram rail_urban rail rail_electric rail_fast ship" speed="7.65" length="9.08" shape="2468.17,831.05 2468.96,832.34 2468.78,835.61 2466.69,839.36"/>
    </edge>
    <edge id=":10587676551_11" function="internal">
        <lane id=":10587676551_11_0" index="0" disallow="tram rail_urban rail rail_electric rail_fast ship" speed="3.65" length="2.34" shape="2464.42,829.36 2463.73,829.93 2462.30,830.16"/>
    </edge>
    <edge id=":10587676551_6" function="internal">
        <lane id=":10587676551_6_0" index="0" disallow="tram rail_urban rail rail_electric rail_fast ship" speed="6.07" length="9.07" shape="2464.14,837.42 2465.39,835.17 2465.50,833.21 2464.47,831.54 2462.30,830.16"/>
    </edge>
    <edge id=":10587676551_7" function="internal">
        <lane id=":10587676551_7_0" index="0" disallow="tram rail_urban rail rail_electric rail_fast ship" speed="8.88" length="14.64" shape="2464.14,837.42 2467.05,834.38 2470.15,832.68 2473.43,832.29 2476.90,833.24"/>
    </edge>
    <edge id=":10587676551_8" function="internal">
        <lane id=":10587676551_8_0" index="0" disallow="tram rail_urban rail rail_electric rail_fast ship" speed="3.65" length="4.67" shape="2464.14,837.42 2465.50,836.95 2466.38,837.12 2466.78,837.92 2466.69,839.36"/>
    </edge>
    <edge id=":10587676554_0" function="internal">
        <lane id=":10587676554_0_0" index="0" disallow="tram rail_urban rail rail_electric rail_fast ship" speed="3.65" length="4.67" shape="2405.15,858.90 2404.00,859.77 2403.11,859.88 2402.49,859.23 2402.14,857.83"/>
    </edge>
    <edge id=":10600079769_0" function="internal">
        <lane id=":10600079769_0_0" index="0" disallow="tram rail_urban rail rail_electric rail_fast ship" speed="13.89" length="2.78" shape="3015.40,825.71 3014.64,825.50 3014.07,825.58 3013.49,825.71 3012.67,825.69"/>
    </edge>
    <edge id=":10600079769_1" function="internal">
        <lane id=":10600079769_1_0" index="0" disallow="tram rail_urban rail rail_electric rail_fast ship" speed="4.78" length="3.33" shape="3015.40,825.71 3015.06,825.19 3015.21,824.37 3015.54,823.44 3015.77,822.59"/>
    </edge>
    <edge id=":10600079772_0" function="internal">
        <lane id=":10600079772_0_0" index="0" disallow="tram rail_urban rail rail_electric rail_fast ship" speed="8.25" length="3.22" shape="3025.27,819.36 3026.07,819.48 3026.61,819.08 3027.18,818.53 3028.07,818.20"/>
    </edge>
    <edge id=":10600079772_1" function="internal">
        <lane id=":10600079772_1_0" index="0" disallow="tram rail_urban rail rail_electric rail_fast ship" speed="5.16" length="2.95" shape="3025.27,819.36 3025.69,819.84 3025.76,820.54 3025.68,821.35 3025.67,822.14"/>
    </edge>
    <edge id=":10600079773_0" function="internal">
        <lane id=":10600079773_0_0" index="0" allow="pedestrian delivery bicycle" speed="9.72" length="7.24" shape="3020.69,827.57 3018.57,827.65 3017.13,827.97 3015.72,828.46 3013.66,829.07"/>
    </edge>
    <edge id=":10600079773_1" function="internal">
        <lane id=":10600079773_1_0" index="0" disallow="tram rail_urban rail rail_electric rail_fast ship" speed="13.89" length="5.48" shape="3020.69,827.57 3019.10,827.42 3018.05,827.07 3017.05,826.52 3015.59,825.79"/>
    </edge>
    <edge id=":10600079774_0" function="internal">
        <lane id=":10600079774_0_0" index="0" disallow="tram rail_urban rail rail_electric rail_fast ship" speed="13.89" length="8.14" shape="3028.78,825.89 3026.50,826.68 3024.91,827.22 3023.29,827.51 3020.89,827.57"/>
    </edge>
    <edge id=":10600079774_1" function="internal">
        <lane id=":10600079774_1_0" index="0" disallow="tram rail_urban rail rail_electric rail_fast ship" speed="6.02" length="8.38" shape="3025.70,822.34 3025.64,824.67 3024.81,826.32 3023.23,827.28 3020.89,827.57"/>
    </edge>
    <edge id=":10600079781_0" function="internal">
        <lane id=":10600079781_0_0" index="0" disallow="tram rail_urban rail rail_electric rail_fast ship" speed="7.07" length="7.53" shape="3023.60,812.16 3023.57,814.93 3023.80,817.04 3024.31,818.49 3025.09,819.27"/>
    </edge>
    <edge id=":10600079781_1" function="internal">
        <lane id=":10600079781_1_0" index="0" disallow="tram rail_urban rail rail_electric rail_fast ship" speed="2.78" length="9.20" shape="3023.60,812.16 3022.54,814.25 3020.39,815.02 3018.20,814.43 3017.05,812.43"/>
    </edge>
    <edge id=":10600079781_2" function="internal">
        <lane id=":10600079781_2_0" index="0" disallow="tram rail_urban rail rail_electric rail_fast ship" speed="5.62" length="6.04" shape="3016.91,818.34 3017.36,817.48 3017.39,815.69 3017.21,813.75 3017.05,812.43"/>
    </edge>
    <edge id=":10600079781_3" function="internal">
        <lane id=":10600079781_3_0" index="0" disallow="tram rail_urban rail rail_electric rail_fast ship" speed="11.23" length="8.49" shape="3016.91,818.34 3019.37,817.91 3021.13,817.84 3022.82,818.25 3025.09,819.27"/>
    </edge>
    <edge id=":10600079783_0" function="internal">
        <lane id=":10600079783_0_0" index="0" disallow="tram rail_urban rail rail_electric rail_fast ship" speed="13.89" length="3.64" shape="3013.10,818.72 3014.18,818.71 3014.92,818.68 3015.65,818.58 3016.71,818.38"/>
    </edge>
    <edge id=":10600079783_1" function="internal">
        <lane id=":10600079783_1_0" index="0" disallow="tram rail_urban rail rail_electric rail_fast ship" speed="5.23" length="4.26" shape="3015.79,822.39 3015.84,821.37 3015.92,820.08 3016.17,818.94 3016.71,818.38"/>
    </edge>
    <edge id=":10600079799_0" function="internal">
        <lane id=":10600079799_0_0" index="0" allow="pedestrian delivery bicycle" speed="5.56" length="6.20" shape="2877.90,850.26 2876.16,844.30"/>
    </edge>
    <edge id=":10600079799_1" function="internal">
        <lane id=":10600079799_1_0" index="0" allow="pedestrian delivery bicycle" speed="5.30" length="5.12" shape="2880.20,846.52 2878.80,846.63 2877.66,846.29 2876.78,845.52 2876.16,844.30"/>
    </edge>
    <edge id=":10671068706_0" function="internal">
        <lane id=":10671068706_0_0" index="0" disallow="tram rail_urban rail rail_electric rail_fast ship" speed="3.65" length="4.67" shape="2157.63,1039.50 2158.23,1040.81 2158.14,1041.70 2157.38,1042.17 2155.94,1042.22"/>
    </edge>
    <edge id=":10671068708_0" function="internal">
        <lane id=":10671068708_0_0" index="0" disallow="tram rail_urban rail rail_electric rail_fast ship" speed="3.65" length="4.67" shape="2087.52,993.25 2088.21,991.99 2088.97,991.52 2089.81,991.84 2090.71,992.97"/>
    </edge>
    <edge id=":10681955246_0" function="internal">
        <lane id=":10681955246_0_0" index="0" allow="pedestrian delivery bicycle" speed="5.56" length="5.01" shape="3123.66,1406.12 3118.67,1405.63"/>
    </edge>
    <edge id=":10681955246_1" function="internal">
        <lane id=":10681955246_1_0" index="0" allow="pedestrian delivery bicycle" speed="3.65" length="2.34" shape="3123.66,1406.12 3122.55,1405.21 3122.23,1404.37"/>
    </edge>
    <edge id=":10681955246_4" function="internal">
        <lane id=":10681955246_4_0" index="0" allow="pedestrian delivery bicycle" speed="3.65" length="2.34" shape="3122.23,1404.37 3122.71,1403.61 3123.98,1402.94"/>
    </edge>
    <edge id=":10681955246_2" function="internal">
        <lane id=":10681955246_2_0" index="0" allow="pedestrian delivery bicycle" speed="5.56" length="5.03" shape="3118.98,1402.45 3123.98,1402.94"/>
    </edge>
    <edge id=":10681955246_3" function="internal">
        <lane id=":10681955246_3_0" index="0" allow="pedestrian delivery bicycle" speed="3.65" length="2.34" shape="3118.98,1402.45 3120.10,1403.36 3120.42,1404.19"/>
    </edge>
    <edge id=":10681955246_5" function="internal">
        <lane id=":10681955246_5_0" index="0" allow="pedestrian delivery bicycle" speed="3.65" length="2.34" shape="3120.42,1404.19 3119.95,1404.95 3118.67,1405.63"/>
    </edge>
    <edge id=":10784573221_0" function="internal">
        <lane id=":10784573221_0_0" index="0" disallow="tram rail_urban rail rail_electric rail_fast ship" speed="22.22" length="5.01" shape="3285.48,768.61 3285.48,763.60"/>
    </edge>
    <edge id=":10784573221_1" function="internal">
        <lane id=":10784573221_1_0" index="0" disallow="tram rail_urban rail rail_electric rail_fast ship" speed="22.22" length="5.01" shape="3288.68,763.61 3288.68,768.61"/>
    </edge>
    <edge id=":10795048880_0" function="internal">
        <lane id=":10795048880_0_0" index="0" allow="pedestrian delivery bicycle" speed="5.56" length="7.59" shape="3310.69,800.89 3309.31,800.48 3308.36,799.31 3307.84,797.40 3307.74,794.73"/>
    </edge>
    <edge id=":10795048880_1" function="internal">
        <lane id=":10795048880_1_0" index="0" allow="pedestrian delivery bicycle" speed="3.65" length="4.67" shape="3310.69,800.89 3309.51,800.06 3309.12,799.25 3309.54,798.46 3310.76,797.69"/>
    </edge>
    <edge id=":10795048880_2" function="internal">
        <lane id=":10795048880_2_0" index="0" allow="pedestrian delivery bicycle" speed="5.56" length="9.16" shape="3307.40,803.89 3307.74,794.73"/>
    </edge>
    <edge id=":10795048880_3" function="internal">
        <lane id=":10795048880_3_0" index="0" allow="pedestrian delivery bicycle" speed="5.56" length="7.78" shape="3307.40,803.89 3307.70,801.15 3308.36,799.21 3309.38,798.05 3310.76,797.69"/>
    </edge>
    <edge id=":10806840979_0" function="internal">
        <lane id=":10806840979_0_0" index="0" disallow="tram rail_urban rail rail_electric rail_fast ship" speed="6.46" length="5.25" shape="3200.19,1930.84 3199.21,1930.87 3197.82,1931.46 3196.42,1932.25 3195.43,1932.83"/>
    </edge>
    <edge id=":10806840979_1" function="internal">
        <lane id=":10806840979_1_0" index="0" disallow="tram rail_urban rail rail_electric rail_fast ship" speed="22.22" length="5.63" shape="3200.19,1930.84 3198.77,1929.97 3197.85,1929.29 3196.99,1928.52 3195.76,1927.40"/>
    </edge>
    <edge id=":1112585187_0" function="internal">
        <lane id=":1112585187_0_0" index="0" disallow="tram rail_urban rail rail_electric rail_fast ship" speed="2.78" length="5.78" shape="2867.12,588.74 2865.41,588.55 2864.25,588.40 2863.08,588.31 2861.37,588.28"/>
    </edge>
    <edge id=":1112585187_1" function="internal">
        <lane id=":1112585187_1_0" index="0" disallow="tram rail_urban rail rail_electric rail_fast ship" speed="2.78" length="5.78" shape="2861.65,585.08 2863.37,585.11 2864.54,585.21 2865.70,585.36 2867.41,585.55"/>
    </edge>
    <edge id=":1112585191_0" function="internal">
        <lane id=":1112585191_0_0" index="0" disallow="tram rail_urban rail rail_electric rail_fast ship" speed="2.78" length="5.79" shape="2790.45,788.40 2787.46,793.36"/>
    </edge>
    <edge id=":1112585191_1" function="internal">
        <lane id=":1112585191_1_0" index="0" disallow="tram rail_urban rail rail_electric rail_fast ship" speed="2.78" length="5.88" shape="2784.70,791.73 2787.75,786.70"/>
    </edge>
    <edge id=":1351215516_0" function="internal">
        <lane id=":1351215516_0_0" index="0" allow="pedestrian bus delivery bicycle" speed="5.56" length="7.14" shape="3277.22,746.69 3275.55,745.60 3273.88,744.98 3272.21,744.84 3270.55,745.18"/>
    </edge>
    <edge id=":1351215516_1" function="internal">
        <lane id=":1351215516_1_0" index="0" allow="pedestrian bus delivery bicycle" speed="5.56" length="5.22" shape="3275.25,743.00 3273.99,743.87 3273.04,744.35 3272.03,744.70 3270.55,745.18"/>
    </edge>
    <edge id=":1351215516_2" function="internal">
        <lane id=":1351215516_2_0" index="0" allow="pedestrian bus delivery bicycle" speed="5.18" length="4.52" shape="3273.64,742.32 3273.54,743.14 3272.99,743.89 3271.99,744.57 3270.55,745.18"/>
    </edge>
    <edge id=":1351215519_0" function="internal">
        <lane id=":1351215519_0_0" index="0" allow="pedestrian bus delivery bicycle" speed="5.56" length="7.02" shape="3245.45,753.17 3243.41,753.38 3241.96,753.24 3240.63,752.64 3238.95,751.45"/>
    </edge>
    <edge id=":1351215519_1" function="internal">
        <lane id=":1351215519_1_0" index="0" allow="pedestrian bus delivery bicycle" speed="5.56" length="6.83" shape="3245.45,753.17 3244.41,752.56 3243.04,751.02 3241.74,749.31 3240.91,748.17"/>
    </edge>
    <edge id=":1351215527_0" function="internal">
        <lane id=":1351215527_0_0" index="0" allow="pedestrian bus delivery bicycle" speed="5.56" length="8.46" shape="3253.81,750.99 3251.44,751.83 3249.80,752.37 3248.13,752.76 3245.65,753.15"/>
    </edge>
    <edge id=":1351215527_1" function="internal">
        <lane id=":1351215527_1_0" index="0" allow="pedestrian bus delivery bicycle" speed="5.56" length="9.08" shape="3253.81,750.99 3251.51,751.40 3249.53,750.93 3247.89,749.58 3246.58,747.34"/>
    </edge>
    <edge id=":1362847843_0" function="internal">
        <lane id=":1362847843_0_0" index="0" disallow="tram rail_urban rail rail_electric rail_fast ship" speed="3.65" length="4.67" shape="2768.27,313.33 2769.33,314.31 2769.60,315.16 2769.07,315.89 2767.76,316.49"/>
    </edge>
    <edge id=":1362847848_0" function="internal">
        <lane id=":1362847848_0_0" index="0" disallow="tram rail_urban rail rail_electric rail_fast ship" speed="3.65" length="4.67" shape="2761.35,350.60 2762.16,349.41 2762.97,349.02 2763.76,349.43 2764.55,350.64"/>
    </edge>
    <edge id=":1362847856_0" function="internal">
        <lane id=":1362847856_0_0" index="0" disallow="tram rail_urban rail rail_electric rail_fast ship" speed="7.94" length="3.22" shape="3202.75,1597.29 3202.82,1598.24 3202.89,1598.92 3203.12,1599.53 3203.64,1600.30"/>
    </edge>
    <edge id=":1362847856_1" function="internal">
        <lane id=":1362847856_1_0" index="0" disallow="tram rail_urban rail rail_electric rail_fast ship" speed="3.65" length="2.34" shape="3202.75,1597.29 3202.08,1598.56 3201.32,1599.04"/>
    </edge>
    <edge id=":1362847856_4" function="internal">
        <lane id=":1362847856_4_0" index="0" disallow="tram rail_urban rail rail_electric rail_fast ship" speed="3.65" length="2.34" shape="3201.32,1599.04 3200.49,1598.73 3199.57,1597.61"/>
    </edge>
    <edge id=":1362847856_2" function="internal">
        <lane id=":1362847856_2_0" index="0" disallow="tram rail_urban rail rail_electric rail_fast ship" speed="7.80" length="3.43" shape="3199.06,1600.91 3199.50,1600.01 3199.68,1599.34 3199.67,1598.62 3199.57,1597.61"/>
    </edge>
    <edge id=":1362847856_3" function="internal">
        <lane id=":1362847856_3_0" index="0" disallow="tram rail_urban rail rail_electric rail_fast ship" speed="4.85" length="3.08" shape="3199.06,1600.91 3200.12,1599.44 3201.24,1598.85"/>
    </edge>