<?xml version="1.0" encoding="UTF-8"?>

<!-- generated on Sat Apr 25 11:41:05 2026 by Eclipse SUMO netconvert Version 1.3.1
<configuration xmlns:xsi="http://www.w3.org/2001/XMLSchema-instance" xsi:noNamespaceSchemaLocation="http://sumo.dlr.de/xsd/netconvertConfiguration.xsd">

    <input>
        <type-files value="/usr/share/sumo/data/typemap/osmNetconvert.typ.xml"/>
        <osm-files value="map.osm"/>
    </input>

    <output>
        <output-file value="nuova_mappa.net.xml"/>
    </output>

    <projection>
        <proj.utm value="true"/>
    </projection>

    <processing>
        <geometry.remove value="true"/>
        <roundabouts.guess value="true"/>
    </processing>

    <tls_building>
        <tls.discard-simple value="true"/>
    </tls_building>

    <ramp_guessing>
        <ramps.guess value="true"/>
    </ramp_guessing>

    <junctions>
        <junctions.join value="true"/>
    </junctions>

</configuration>
-->

<net version="1.3" junctionCornerDetail="5" limitTurnSpeed="5.50" xmlns:xsi="http://www.w3.org/2001/XMLSchema-instance" xsi:noNamespaceSchemaLocation="http://sumo.dlr.de/xsd/net_file.xsd">

    <location netOffset="-605958.09,-4351992.22" convBoundary="0.00,0.00,2421.92,3322.89" origBoundary="16.229034,39.310592,16.257277,39.340537" projParameter="+proj=utm +zone=33 +ellps=WGS84 +datum=WGS84 +units=m +no_defs"/>

    <type id="highway.bridleway" priority="1" numLanes="1" speed="2.78" allow="pedestrian" oneway="1" width="2.00"/>
    <type id="highway.bus_guideway" priority="1" numLanes="1" speed="27.78" allow="bus" oneway="1"/>
    <type id="highway.cycleway" priority="1" numLanes="1" speed="8.33" allow="bicycle" oneway="0" width="1.00"/>
    <type id="highway.footway" priority="1" numLanes="1" speed="2.78" allow="pedestrian" oneway="1" width="2.00"/>
    <type id="highway.ford" priority="1" numLanes="1" speed="2.78" allow="army" oneway="0"/>
    <type id="highway.living_street" priority="2" numLanes="1" speed="2.78" disallow="tram rail_urban rail rail_electric rail_fast ship" oneway="0"/>
    <type id="highway.motorway" priority="14" numLanes="2" speed="39.44" allow="private emergency authority army vip passenger hov taxi bus coach delivery truck trailer motorcycle evehicle custom1 custom2" oneway="1"/>
    <type id="highway.motorway_link" priority="9" numLanes="1" speed="22.22" allow="private emergency authority army vip passenger hov taxi bus coach delivery truck trailer motorcycle evehicle custom1 custom2" oneway="1"/>
    <type id="highway.path" priority="1" numLanes="1" speed="2.78" allow="pedestrian bicycle" oneway="0" width="2.00"/>
    <type id="highway.pedestrian" priority="1" numLanes="1" speed="2.78" allow="pedestrian" oneway="1" width="2.00"/>
    <type id="highway.primary" priority="12" numLanes="2" speed="27.78" disallow="tram rail_urban rail rail_electric rail_fast ship" oneway="0"/>
    <type id="highway.primary_link" priority="7" numLanes="1" speed="22.22" disallow="tram rail_urban rail rail_electric rail_fast ship" oneway="0"/>
    <type id="highway.raceway" priority="15" numLanes="2" speed="83.33" allow="vip" oneway="0"/>
    <type id="highway.residential" priority="3" numLanes="1" speed="13.89" disallow="tram rail_urban rail rail_electric rail_fast ship" oneway="0"/>
    <type id="highway.secondary" priority="11" numLanes="1" speed="27.78" disallow="tram rail_urban rail rail_electric rail_fast ship" oneway="0"/>
    <type id="highway.secondary_link" priority="6" numLanes="1" speed="22.22" disallow="tram rail_urban rail rail_electric rail_fast ship" oneway="0"/>
    <type id="highway.service" priority="1" numLanes="1" speed="5.56" allow="pedestrian delivery bicycle" oneway="0"/>
    <type id="highway.stairs" priority="1" numLanes="1" speed="1.39" allow="pedestrian" oneway="1" width="2.00"/>
    <type id="highway.step" priority="1" numLanes="1" speed="1.39" allow="pedestrian" oneway="1" width="2.00"/>
    <type id="highway.steps" priority="1" numLanes="1" speed="1.39" allow="pedestrian" oneway="1" width="2.00"/>
    <type id="highway.tertiary" priority="10" numLanes="1" speed="22.22" disallow="tram rail_urban rail rail_electric rail_fast ship" oneway="0"/>
    <type id="highway.tertiary_link" priority="5" numLanes="1" speed="22.22" disallow="tram rail_urban rail rail_electric rail_fast ship" oneway="0"/>
    <type id="highway.track" priority="1" numLanes="1" speed="5.56" allow="pedestrian motorcycle moped bicycle" oneway="0"/>
    <type id="highway.trunk" priority="13" numLanes="2" speed="27.78" disallow="pedestrian bicycle tram rail_urban rail rail_electric rail_fast ship" oneway="0"/>
    <type id="highway.trunk_link" priority="8" numLanes="1" speed="22.22" disallow="pedestrian bicycle tram rail_urban rail rail_electric rail_fast ship" oneway="0"/>
    <type id="highway.unclassified" priority="4" numLanes="1" speed="13.89" disallow="tram rail_urban rail rail_electric rail_fast ship" oneway="0"/>
    <type id="highway.unsurfaced" priority="1" numLanes="1" speed="8.33" disallow="tram rail_urban rail rail_electric rail_fast ship" oneway="0"/>
    <type id="railway.highspeed" priority="21" numLanes="1" speed="69.44" allow="rail_fast" oneway="1"/>
    <type id="railway.light_rail" priority="19" numLanes="1" speed="27.78" allow="rail_urban" oneway="1"/>
    <type id="railway.preserved" priority="16" numLanes="1" speed="27.78" allow="rail" oneway="1"/>
    <type id="railway.rail" priority="20" numLanes="1" speed="44.44" allow="rail" oneway="1"/>
    <type id="railway.subway" priority="18" numLanes="1" speed="27.78" allow="rail_urban" oneway="1"/>
    <type id="railway.tram" priority="17" numLanes="1" speed="13.89" allow="tram" oneway="1"/>

    <edge id=":10806905343_0" function="internal">
        <lane id=":10806905343_0_0" index="0" disallow="tram rail_urban rail rail_electric rail_fast ship" speed="25.00" length="13.74" shape="1194.55,903.70 1197.06,900.17 1198.83,897.47 1200.18,894.92 1201.44,891.88"/>
    </edge>
    <edge id=":10806905343_1" function="internal">
        <lane id=":10806905343_1_0" index="0" disallow="tram rail_urban rail rail_electric rail_fast ship" speed="23.25" length="13.46" shape="1194.55,903.70 1197.18,900.55 1199.45,898.83 1202.08,897.50 1205.78,895.50"/>
        <lane id=":10806905343_1_1" index="1" disallow="tram rail_urban rail rail_electric rail_fast ship" speed="22.17" length="13.46" shape="1197.15,905.57 1199.55,902.72 1201.64,901.21 1204.06,900.04 1207.43,898.25"/>
    </edge>
    <edge id=":10998091868_0" function="internal">
        <lane id=":10998091868_0_0" index="0" disallow="tram rail_urban rail rail_electric rail_fast ship" speed="3.65" length="4.67" shape="1766.45,1311.60 1767.28,1310.42 1768.09,1310.04 1768.88,1310.46 1769.65,1311.68"/>
    </edge>
    <edge id=":11096778998_0" function="internal">
        <lane id=":11096778998_0_0" index="0" disallow="tram rail_urban rail rail_electric rail_fast ship" speed="26.17" length="15.72" shape="1300.25,966.90 1295.79,967.31 1292.61,967.28 1289.61,967.74 1285.71,969.63"/>
        <lane id=":11096778998_0_1" index="1" disallow="tram rail_urban rail rail_electric rail_fast ship" speed="27.33" length="15.72" shape="1299.86,963.72 1295.00,964.20 1291.53,964.24 1288.28,964.81 1284.02,966.91"/>
    </edge>
    <edge id=":11096778998_2" function="internal">
        <lane id=":11096778998_2_0" index="0" disallow="tram rail_urban rail rail_electric rail_fast ship" speed="27.78" length="16.16" shape="1298.25,959.88 1295.04,963.34 1292.56,965.43 1289.78,967.18 1285.71,969.63"/>
        <lane id=":11096778998_2_1" index="1" disallow="tram rail_urban rail rail_electric rail_fast ship" speed="16.02" length="16.16" shape="1296.27,956.93 1294.01,960.97 1291.51,963.09 1288.34,964.62 1284.02,966.91"/>
    </edge>
    <edge id=":11104566961_0" function="internal">
        <lane id=":11104566961_0_0" index="0" disallow="tram rail_urban rail rail_electric rail_fast ship" speed="18.05" length="6.98" shape="1596.16,1609.22 1598.01,1608.27 1599.27,1607.62 1600.48,1606.89 1602.19,1605.72"/>
    </edge>
    <edge id=":11104566961_1" function="internal">
        <lane id=":11104566961_1_0" index="0" disallow="tram rail_urban rail rail_electric rail_fast ship" speed="7.77" length="7.23" shape="1599.79,1612.26 1599.92,1610.05 1600.36,1608.22 1601.12,1606.78 1602.19,1605.72"/>
    </edge>
    <edge id=":11104566962_0" function="internal">
        <lane id=":11104566962_0_0" index="0" disallow="tram rail_urban rail rail_electric rail_fast ship" speed="8.28" length="5.77" shape="1602.36,1605.61 1603.54,1604.52 1603.99,1603.46 1604.12,1602.19 1604.35,1600.48"/>
    </edge>
    <edge id=":11104566962_1" function="internal">
        <lane id=":11104566962_1_0" index="0" disallow="tram rail_urban rail rail_electric rail_fast ship" speed="10.50" length="5.36" shape="1602.36,1605.61 1603.67,1604.72 1604.65,1604.23 1605.72,1603.98 1607.29,1603.84"/>
    </edge>
    <edge id=":11237246018_0" function="internal">
        <lane id=":11237246018_0_0" index="0" disallow="tram rail_urban rail rail_electric rail_fast ship" speed="13.73" length="95.30" shape="1884.60,1296.35 1879.07,1331.00 1877.82,1342.23 1880.87,1330.05 1888.22,1294.45"/>
    </edge>
    <edge id=":11237246018_1" function="internal">
        <lane id=":11237246018_1_0" index="0" allow="pedestrian delivery bicycle" speed="4.56" length="8.59" shape="1884.60,1296.35 1885.24,1298.92 1884.79,1300.50 1883.26,1301.09 1880.64,1300.69"/>
    </edge>
    <edge id=":11237246018_2" function="internal">
        <lane id=":11237246018_2_0" index="0" allow="pedestrian delivery bicycle" speed="13.89" length="69.78" shape="1875.13,1370.26 1880.64,1300.69"/>
    </edge>
    <edge id=":11237246018_3" function="internal">
        <lane id=":11237246018_3_0" index="0" disallow="tram rail_urban rail rail_electric rail_fast ship" speed="22.22" length="76.93" shape="1875.13,1370.26 1888.22,1294.45"/>
        <lane id=":11237246018_3_1" index="1" disallow="tram rail_urban rail rail_electric rail_fast ship" speed="22.22" length="76.93" shape="1878.29,1370.77 1891.38,1294.96"/>
    </edge>
    <edge id=":11237314492_0" function="internal">
        <lane id=":11237314492_0_0" index="0" disallow="tram rail_urban rail rail_electric rail_fast ship" speed="5.02" length="4.97" shape="1964.97,852.69 1966.33,852.74 1967.37,852.33 1968.10,851.48 1968.52,850.17"/>
    </edge>
    <edge id=":11237314492_1" function="internal">
        <lane id=":11237314492_1_0" index="0" allow="pedestrian delivery bicycle" speed="3.65" length="4.68" shape="1964.97,852.69 1966.04,853.66 1966.31,854.51 1965.80,855.24 1964.49,855.85"/>
    </edge>
    <edge id=":11237314492_2" function="internal">
        <lane id=":11237314492_2_0" index="0" allow="pedestrian delivery bicycle" speed="5.02" length="4.92" shape="1966.92,859.43 1966.97,858.07 1966.58,857.02 1965.75,856.28 1964.49,855.85"/>
    </edge>
    <edge id=":11237314492_3" function="internal">
        <lane id=":11237314492_3_0" index="0" disallow="tram rail_urban rail rail_electric rail_fast ship" speed="22.22" length="9.40" shape="1966.92,859.43 1968.52,850.17"/>
        <lane id=":11237314492_3_1" index="1" disallow="tram rail_urban rail rail_electric rail_fast ship" speed="22.22" length="9.40" shape="1970.07,859.98 1971.68,850.72"/>
    </edge>
    <edge id=":11681255673_0" function="internal">
        <lane id=":11681255673_0_0" index="0" disallow="tram rail_urban rail rail_electric rail_fast ship" speed="3.74" length="3.22" shape="1887.19,1371.03 1887.19,1371.92 1887.49,1372.58 1888.07,1372.99 1888.95,1373.16"/>
    </edge>
    <edge id=":11681255673_1" function="internal">
        <lane id=":11681255673_1_0" index="0" allow="bicycle" speed="8.33" length="6.41" width="1.00" shape="1887.19,1371.03 1886.30,1377.37"/>
    </edge>
    <edge id=":11681255673_2" function="internal">
        <lane id=":11681255673_2_0" index="0" allow="bicycle" speed="2.04" length="1.46" width="1.00" shape="1887.19,1371.03 1886.89,1371.37 1886.63,1371.45 1886.40,1371.29 1886.20,1370.89"/>
    </edge>
    <edge id=":11681255673_3" function="internal">
        <lane id=":11681255673_3_0" index="0" allow="bicycle" speed="4.57" length="3.64" width="1.00" shape="1883.64,1372.91 1884.65,1372.82 1885.41,1372.45 1885.93,1371.81 1886.20,1370.89"/>
    </edge>
    <edge id=":11681255673_4" function="internal">
        <lane id=":11681255673_4_0" index="0" disallow="tram rail_urban rail rail_electric rail_fast ship" speed="13.89" length="5.31" shape="1883.59,1374.00 1888.90,1374.26"/>
    </edge>
    <edge id=":11681255673_5" function="internal">
        <lane id=":11681255673_5_0" index="0" allow="bicycle" speed="4.62" length="4.06" width="1.00" shape="1883.54,1375.10 1884.79,1375.30 1885.67,1375.74 1886.17,1376.43 1886.30,1377.37"/>
    </edge>
    <edge id=":11681255673_6" function="internal">
        <lane id=":11681255673_6_0" index="0" allow="bicycle" speed="8.33" length="6.40" width="1.00" shape="1885.31,1377.23 1886.20,1370.89"/>
    </edge>
    <edge id=":11681255673_7" function="internal">
        <lane id=":11681255673_7_0" index="0" disallow="tram rail_urban rail rail_electric rail_fast ship" speed="5.25" length="6.20" shape="1885.31,1377.23 1885.62,1375.39 1886.34,1374.09 1887.44,1373.35 1888.95,1373.16"/>
    </edge>
    <edge id=":11681255673_8" function="internal">
        <lane id=":11681255673_8_0" index="0" allow="bicycle" speed="2.04" length="1.47" width="1.00" shape="1885.31,1377.23 1885.61,1376.89 1885.88,1376.80 1886.11,1376.96 1886.30,1377.37"/>
    </edge>
    <edge id=":11751581116_0" function="internal">
        <lane id=":11751581116_0_0" index="0" disallow="tram rail_urban rail rail_electric rail_fast ship" speed="3.65" length="4.67" shape="1891.57,371.29 1890.59,370.24 1890.39,369.37 1890.96,368.68 1892.31,368.18"/>
    </edge>
    <edge id=":11751581145_0" function="internal">
        <lane id=":11751581145_0_0" index="0" disallow="tram rail_urban rail rail_electric rail_fast ship" speed="13.89" length="9.40" shape="1998.64,630.24 1989.39,628.52"/>
    </edge>
    <edge id=":11751581145_1" function="internal">
        <lane id=":11751581145_1_0" index="0" allow="pedestrian delivery bicycle" speed="6.90" length="5.05" shape="1998.64,630.24 1996.02,629.35 1994.31,627.83"/>
    </edge>
    <edge id=":11751581145_2" function="internal">
        <lane id=":11751581145_2_0" index="0" disallow="tram rail_urban rail rail_electric rail_fast ship" speed="3.65" length="2.34" shape="1998.64,630.24 1997.60,629.23 1997.35,628.37"/>
    </edge>
    <edge id=":11751581145_9" function="internal">
        <lane id=":11751581145_9_0" index="0" allow="pedestrian delivery bicycle" speed="6.90" length="5.11" shape="1994.31,627.83 1993.49,625.66 1993.57,622.87"/>
    </edge>
    <edge id=":11751581145_10" function="internal">
        <lane id=":11751581145_10_0" index="0" disallow="tram rail_urban rail rail_electric rail_fast ship" speed="3.65" length="2.34" shape="1997.35,628.37 1997.89,627.66 1999.22,627.09"/>
    </edge>
    <edge id=":11751581145_3" function="internal">
        <lane id=":11751581145_3_0" index="0" disallow="tram rail_urban rail rail_electric rail_fast ship" speed="5.09" length="5.06" shape="1996.72,623.40 1996.68,624.80 1997.08,625.89 1997.93,626.65 1999.22,627.09"/>
    </edge>
    <edge id=":11751581145_4" function="internal">
        <lane id=":11751581145_4_0" index="0" disallow="tram rail_urban rail rail_electric rail_fast ship" speed="6.85" length="10.24" shape="1996.72,623.40 1995.87,626.08 1994.36,627.82 1992.20,628.64 1989.39,628.52"/>
    </edge>
    <edge id=":11751581145_5" function="internal">
        <lane id=":11751581145_5_0" index="0" allow="pedestrian delivery bicycle" speed="3.65" length="4.67" shape="1996.72,623.40 1995.73,624.45 1994.88,624.71 1994.16,624.18 1993.57,622.87"/>
    </edge>
    <edge id=":11751581145_6" function="internal">
        <lane id=":11751581145_6_0" index="0" allow="pedestrian delivery bicycle" speed="5.02" length="5.02" shape="1989.97,625.38 1991.35,625.43 1992.41,625.03 1993.15,624.18 1993.57,622.87"/>
    </edge>
    <edge id=":11751581145_7" function="internal">
        <lane id=":11751581145_7_0" index="0" disallow="tram rail_urban rail rail_electric rail_fast ship" speed="13.89" length="9.40" shape="1989.97,625.38 1999.22,627.09"/>
    </edge>
    <edge id=":11751581145_8" function="internal">
        <lane id=":11751581145_8_0" index="0" disallow="tram rail_urban rail rail_electric rail_fast ship" speed="3.65" length="2.34" shape="1989.97,625.38 1991.01,626.38 1991.26,627.24"/>
    </edge>
    <edge id=":11751581145_11" function="internal">
        <lane id=":11751581145_11_0" index="0" disallow="tram rail_urban rail rail_electric rail_fast ship" speed="3.65" length="2.34" shape="1991.26,627.24 1990.72,627.95 1989.39,628.52"/>
    </edge>
    <edge id=":11751581146_0" function="internal">
        <lane id=":11751581146_0_0" index="0" allow="pedestrian delivery bicycle" speed="4.89" length="5.20" shape="2019.27,510.70 2017.83,510.43 2016.73,510.71 2015.95,511.55 2015.50,512.94"/>
    </edge>
    <edge id=":11751581146_1" function="internal">
        <lane id=":11751581146_1_0" index="0" disallow="tram rail_urban rail rail_electric rail_fast ship" speed="13.89" length="9.48" shape="2019.27,510.70 2010.29,507.65"/>
    </edge>
    <edge id=":11751581146_2" function="internal">
        <lane id=":11751581146_2_0" index="0" disallow="tram rail_urban rail rail_electric rail_fast ship" speed="3.65" length="2.34" shape="2019.27,510.70 2018.39,509.55 2018.27,508.67"/>
    </edge>
    <edge id=":11751581146_9" function="internal">
        <lane id=":11751581146_9_0" index="0" disallow="tram rail_urban rail rail_electric rail_fast ship" speed="3.65" length="2.34" shape="2018.27,508.67 2018.90,508.04 2020.30,507.67"/>
    </edge>
    <edge id=":11751581146_3" function="internal">
        <lane id=":11751581146_3_0" index="0" disallow="tram rail_urban rail rail_electric rail_fast ship" speed="13.89" length="9.48" shape="2011.32,504.62 2020.30,507.67"/>
    </edge>
    <edge id=":11751581146_4" function="internal">
        <lane id=":11751581146_4_0" index="0" allow="pedestrian delivery bicycle" speed="7.32" length="4.84" shape="2011.32,504.62 2013.56,505.81 2015.01,507.60"/>
    </edge>
    <edge id=":11751581146_5" function="internal">
        <lane id=":11751581146_5_0" index="0" disallow="tram rail_urban rail rail_electric rail_fast ship" speed="3.65" length="2.34" shape="2011.32,504.62 2012.19,505.76 2012.32,506.65"/>
    </edge>
    <edge id=":11751581146_10" function="internal">
        <lane id=":11751581146_10_0" index="0" allow="pedestrian delivery bicycle" speed="7.32" length="5.43" shape="2015.01,507.60 2015.66,509.97 2015.50,512.94"/>
    </edge>
    <edge id=":11751581146_11" function="internal">
        <lane id=":11751581146_11_0" index="0" disallow="tram rail_urban rail rail_electric rail_fast ship" speed="3.65" length="2.34" shape="2012.32,506.65 2011.68,507.28 2010.29,507.65"/>
    </edge>
    <edge id=":11751581146_6" function="internal">
        <lane id=":11751581146_6_0" index="0" disallow="tram rail_urban rail rail_electric rail_fast ship" speed="5.62" length="5.70" shape="2012.35,512.40 2012.46,510.67 2012.16,509.30 2011.43,508.29 2010.29,507.65"/>
    </edge>
    <edge id=":11751581146_7" function="internal">
        <lane id=":11751581146_7_0" index="0" disallow="tram rail_urban rail rail_electric rail_fast ship" speed="6.75" length="10.98" shape="2012.35,512.40 2013.29,509.47 2014.93,507.70 2017.27,507.10 2020.30,507.67"/>
    </edge>
    <edge id=":11751581146_8" function="internal">
        <lane id=":11751581146_8_0" index="0" allow="pedestrian delivery bicycle" speed="3.65" length="4.67" shape="2012.35,512.40 2013.34,511.35 2014.19,511.09 2014.92,511.62 2015.50,512.94"/>
    </edge>
    <edge id=":11751581147_0" function="internal">
        <lane id=":11751581147_0_0" index="0" allow="pedestrian delivery bicycle" speed="5.56" length="9.44" shape="2010.80,540.60 2009.22,549.90"/>
    </edge>
    <edge id=":11751581147_1" function="internal">
        <lane id=":11751581147_1_0" index="0" allow="pedestrian delivery bicycle" speed="5.56" length="10.70" shape="2010.80,540.60 2009.89,543.44 2008.30,545.19 2006.02,545.88 2003.07,545.49"/>
    </edge>
    <edge id=":11751581147_2" function="internal">
        <lane id=":11751581147_2_0" index="0" allow="pedestrian delivery bicycle" speed="3.65" length="4.67" shape="2010.80,540.60 2009.81,541.65 2008.96,541.91 2008.23,541.38 2007.65,540.06"/>
    </edge>
    <edge id=":11751581147_3" function="internal">
        <lane id=":11751581147_3_0" index="0" allow="pedestrian delivery bicycle" speed="4.93" length="5.13" shape="2003.94,542.41 2005.36,542.59 2006.45,542.27 2007.21,541.42 2007.65,540.06"/>
    </edge>
    <edge id=":11751581147_4" function="internal">
        <lane id=":11751581147_4_0" index="0" allow="pedestrian delivery bicycle" speed="5.56" length="10.22" shape="2003.94,542.41 2006.62,543.54 2008.39,545.16 2009.26,547.29 2009.22,549.90"/>
    </edge>
    <edge id=":11751581147_5" function="internal">
        <lane id=":11751581147_5_0" index="0" allow="pedestrian delivery bicycle" speed="3.65" length="4.67" shape="2003.94,542.41 2004.88,543.50 2005.04,544.38 2004.44,545.04 2003.07,545.49"/>
    </edge>
    <edge id=":11751581147_6" function="internal">
        <lane id=":11751581147_6_0" index="0" allow="pedestrian delivery bicycle" speed="5.42" length="5.45" shape="2006.07,549.37 2006.06,548.04 2005.56,546.95 2004.57,546.10 2003.07,545.49"/>
    </edge>
    <edge id=":11751581147_7" function="internal">
        <lane id=":11751581147_7_0" index="0" allow="pedestrian delivery bicycle" speed="5.56" length="9.44" shape="2006.07,549.37 2007.65,540.06"/>
    </edge>
    <edge id=":11751581147_8" function="internal">
        <lane id=":11751581147_8_0" index="0" allow="pedestrian delivery bicycle" speed="3.65" length="4.67" shape="2006.07,549.37 2007.06,548.32 2007.91,548.06 2008.63,548.59 2009.22,549.90"/>
    </edge>
    <edge id=":11751581154_0" function="internal">
        <lane id=":11751581154_0_0" index="0" disallow="tram rail_urban rail rail_electric rail_fast ship" speed="5.02" length="5.03" shape="1890.73,894.66 1889.35,894.58 1888.28,894.97 1887.53,895.81 1887.10,897.12"/>
    </edge>
    <edge id=":11751581154_1" function="internal">
        <lane id=":11751581154_1_0" index="0" disallow="tram rail_urban rail rail_electric rail_fast ship" speed="6.94" length="10.14" shape="1890.73,894.66 1888.08,893.73 1886.34,892.20 1885.49,890.08 1885.54,887.36"/>
    </edge>
    <edge id=":11751581154_2" function="internal">
        <lane id=":11751581154_2_0" index="0" allow="pedestrian delivery bicycle" speed="3.65" length="4.67" shape="1890.73,894.66 1889.71,893.64 1889.48,892.78 1890.03,892.07 1891.37,891.53"/>
    </edge>
    <edge id=":11751581154_3" function="internal">
        <lane id=":11751581154_3_0" index="0" allow="pedestrian delivery bicycle" speed="5.15" length="5.11" shape="1888.70,887.88 1888.68,889.23 1889.12,890.29 1890.01,891.06 1891.37,891.53"/>
    </edge>
    <edge id=":11751581154_4" function="internal">
        <lane id=":11751581154_4_0" index="0" disallow="tram rail_urban rail rail_electric rail_fast ship" speed="13.89" length="9.38" shape="1888.70,887.88 1887.10,897.12"/>
    </edge>
    <edge id=":11751581154_5" function="internal">
        <lane id=":11751581154_5_0" index="0" disallow="tram rail_urban rail rail_electric rail_fast ship" speed="3.65" length="2.34" shape="1888.70,887.88 1887.71,888.93 1886.86,889.20"/>
    </edge>
    <edge id=":11751581154_9" function="internal">
        <lane id=":11751581154_9_0" index="0" disallow="tram rail_urban rail rail_electric rail_fast ship" speed="3.65" length="2.34" shape="1886.86,889.20 1886.13,888.67 1885.54,887.36"/>
    </edge>
    <edge id=":11751581154_6" function="internal">
        <lane id=":11751581154_6_0" index="0" disallow="tram rail_urban rail rail_electric rail_fast ship" speed="13.89" length="9.34" shape="1883.95,896.56 1885.54,887.36"/>
    </edge>
    <edge id=":11751581154_7" function="internal">
        <lane id=":11751581154_7_0" index="0" allow="pedestrian delivery bicycle" speed="6.84" length="5.14" shape="1883.95,896.56 1884.84,893.87 1886.37,892.14"/>
    </edge>
    <edge id=":11751581154_8" function="internal">
        <lane id=":11751581154_8_0" index="0" disallow="tram rail_urban rail rail_electric rail_fast ship" speed="3.65" length="2.34" shape="1883.95,896.56 1884.95,895.52 1885.81,895.26"/>
    </edge>
    <edge id=":11751581154_10" function="internal">
        <lane id=":11751581154_10_0" index="0" allow="pedestrian delivery bicycle" speed="6.84" length="5.14" shape="1886.37,892.14 1888.55,891.36 1891.37,891.53"/>
    </edge>
    <edge id=":11751581154_11" function="internal">
        <lane id=":11751581154_11_0" index="0" disallow="tram rail_urban rail rail_electric rail_fast ship" speed="3.65" length="2.34" shape="1885.81,895.26 1886.52,895.80 1887.10,897.12"/>
    </edge>
    <edge id=":11758798843_0" function="internal">
        <lane id=":11758798843_0_0" index="0" allow="pedestrian delivery bicycle" speed="6.81" length="6.96" shape="1973.22,2207.11 1972.76,2205.91 1971.71,2204.87 1970.07,2203.98 1967.86,2203.24"/>
    </edge>
    <edge id=":11758798843_1" function="internal">
        <lane id=":11758798843_1_0" index="0" disallow="tram rail_urban rail rail_electric rail_fast ship" speed="13.89" length="9.90" shape="1973.22,2207.11 1971.94,2197.29"/>
    </edge>
    <edge id=":11758798843_2" function="internal">
        <lane id=":11758798843_2_0" index="0" disallow="tram rail_urban rail rail_electric rail_fast ship" speed="3.65" length="2.34" shape="1973.22,2207.11 1973.85,2205.81 1974.59,2205.30"/>
    </edge>
    <edge id=":11758798843_9" function="internal">
        <lane id=":11758798843_9_0" index="0" disallow="tram rail_urban rail rail_electric rail_fast ship" speed="3.65" length="2.34" shape="1974.59,2205.30 1975.44,2205.59 1976.39,2206.67"/>
    </edge>
    <edge id=":11758798843_3" function="internal">
        <lane id=":11758798843_3_0" index="0" disallow="tram rail_urban rail rail_electric rail_fast ship" speed="13.89" length="9.87" shape="1975.11,2196.89 1976.39,2206.67"/>
    </edge>
    <edge id=":11758798843_4" function="internal">
        <lane id=":11758798843_4_0" index="0" allow="pedestrian delivery bicycle" speed="6.67" length="5.46" shape="1975.11,2196.89 1975.06,2200.49 1974.18,2202.12"/>
    </edge>
    <edge id=":11758798843_5" function="internal">
        <lane id=":11758798843_5_0" index="0" disallow="tram rail_urban rail rail_electric rail_fast ship" speed="3.65" length="2.34" shape="1975.11,2196.89 1974.47,2198.18 1973.72,2198.68"/>
    </edge>
    <edge id=":11758798843_10" function="internal">
        <lane id=":11758798843_10_0" index="0" allow="pedestrian delivery bicycle" speed="6.67" length="6.89" shape="1974.18,2202.12 1973.84,2202.75 1971.44,2203.67 1967.86,2203.24"/>
    </edge>
    <edge id=":11758798843_11" function="internal">
        <lane id=":11758798843_11_0" index="0" disallow="tram rail_urban rail rail_electric rail_fast ship" speed="3.65" length="2.34" shape="1973.72,2198.68 1972.88,2198.38 1971.94,2197.29"/>
    </edge>
    <edge id=":11758798843_6" function="internal">
        <lane id=":11758798843_6_0" index="0" disallow="tram rail_urban rail rail_electric rail_fast ship" speed="4.73" length="5.55" shape="1968.68,2200.14 1970.29,2200.34 1971.37,2199.93 1971.92,2198.91 1971.94,2197.29"/>
    </edge>
    <edge id=":11758798843_7" function="internal">
        <lane id=":11758798843_7_0" index="0" disallow="tram rail_urban rail rail_electric rail_fast ship" speed="8.30" length="10.71" shape="1968.68,2200.14 1971.81,2201.25 1974.14,2202.71 1975.67,2204.52 1976.39,2206.67"/>
    </edge>
    <edge id=":11758798843_8" function="internal">
        <lane id=":11758798843_8_0" index="0" allow="pedestrian delivery bicycle" speed="3.65" length="4.67" shape="1968.68,2200.14 1969.63,2201.22 1969.81,2202.10 1969.22,2202.77 1967.86,2203.24"/>
    </edge>
    <edge id=":11758798851_0" function="internal">
        <lane id=":11758798851_0_0" index="0" allow="pedestrian delivery bicycle" speed="4.77" length="5.45" shape="1964.95,2155.83 1964.41,2154.35 1963.57,2153.57 1962.42,2153.47 1960.97,2154.07"/>
    </edge>
    <edge id=":11758798851_1" function="internal">
        <lane id=":11758798851_1_0" index="0" disallow="tram rail_urban rail rail_electric rail_fast ship" speed="13.89" length="10.33" shape="1964.95,2155.83 1962.84,2145.72"/>
    </edge>
    <edge id=":11758798851_2" function="internal">
        <lane id=":11758798851_2_0" index="0" disallow="tram rail_urban rail rail_electric rail_fast ship" speed="3.65" length="2.34" shape="1964.95,2155.83 1965.48,2154.49 1966.19,2153.94"/>
    </edge>
    <edge id=":11758798851_9" function="internal">
        <lane id=":11758798851_9_0" index="0" disallow="tram rail_urban rail rail_electric rail_fast ship" speed="3.65" length="2.34" shape="1966.19,2153.94 1967.05,2154.17 1968.08,2155.18"/>
    </edge>
    <edge id=":11758798851_3" function="internal">
        <lane id=":11758798851_3_0" index="0" disallow="tram rail_urban rail rail_electric rail_fast ship" speed="13.89" length="10.33" shape="1965.98,2145.07 1968.08,2155.18"/>
    </edge>
    <edge id=":11758798851_4" function="internal">
        <lane id=":11758798851_4_0" index="0" allow="pedestrian delivery bicycle" speed="8.15" length="4.91" shape="1965.98,2145.07 1966.08,2147.65 1965.34,2149.86"/>
    </edge>
    <edge id=":11758798851_5" function="internal">
        <lane id=":11758798851_5_0" index="0" disallow="tram rail_urban rail rail_electric rail_fast ship" speed="3.65" length="2.34" shape="1965.98,2145.07 1965.44,2146.41 1964.73,2146.96"/>
    </edge>