[General]
network = networkprojectvanet.simulations.replay.Scenario

cmdenv-express-mode = true
cmdenv-status-frequency = 0s

sim-time-limit = 300s
warmup-period = 10s
repeat = 50
seed-set = ${repetition}

# ARP
*.*_car[*].ipv4.arp.typename = "Arp"

# Forwarding
*.normal_car[*].ipv4.ip.forwarding = true
*.normal_car[*].ipv4.ip.procDelay = 0s
*.attacker_car[*].ipv4.ip.forwarding = true
*.attacker_car[*].ipv4.ip.procDelay = 0s

# Routing table
*.normal_car[*].ipv4.routingTable.routingFile = ""
*.normal_car[*].ipv4.routingTable.netmaskRoutes = ""
*.normal_car[*].ipv4.configurator.addDefaultRoutes = false
*.normal_car[*].ipv4.configurator.addStaticRoutes = false
*.normal_car[*].ipv4.configurator.addSubnetRoutes = false
*.attacker_car[*].ipv4.routingTable.routingFile = ""
*.attacker_car[*].ipv4.routingTable.netmaskRoutes = ""
*.attacker_car[*].ipv4.configurator.addDefaultRoutes = false
*.attacker_car[*].ipv4.configurator.addStaticRoutes = false
*.attacker_car[*].ipv4.configurator.addSubnetRoutes = false

# AODV settings nodi normali
*.normal_car[*].routing.useHelloMessages = true
*.normal_car[*].routing.maxQueuedPackets = 3
*.normal_car[*].routing.maxQueueTime = 60s
*.normal_car[*].routing.activeRouteTimeout = 10s
*.normal_car[*].routing.helloInterval = 2s
*.normal_car[*].routing.allowedHelloLoss = 2
*.normal_car[*].routing.netDiameter = 35
*.normal_car[*].routing.rreqRetries = 2
*.normal_car[*].routing.rreqRatelimit = 3
*.normal_car[*].routing.destinationOnlyFlag = false
*.normal_car[*].routing.deletePeriod = 5s
*.normal_car[*].routing.ttlStart = 2
*.normal_car[*].routing.ttlIncrement = 2
*.normal_car[*].routing.ttlThreshold = 7

# AODV settings attaccanti
*.attacker_car[*].routing.useHelloMessages = true
*.attacker_car[*].routing.maxQueuedPackets = 3
*.attacker_car[*].routing.maxQueueTime = 60s
*.attacker_car[*].routing.activeRouteTimeout = 10s
*.attacker_car[*].routing.helloInterval = 2s
*.attacker_car[*].routing.allowedHelloLoss = 2
*.attacker_car[*].routing.netDiameter = 35
*.attacker_car[*].routing.rreqRetries = 2
*.attacker_car[*].routing.rreqRatelimit = 3
*.attacker_car[*].routing.destinationOnlyFlag = false
*.attacker_car[*].routing.deletePeriod = 5s

# Radio
*.*_car[*].wlan[*].typename = "AckingWirelessInterface"
*.*_car[*].wlan[*].bitrate = 2Mbps
*.*_car[*].wlan[*].mac.headerLength = 23B
*.*_car[*].wlan[*].radio.typename = "UnitDiskRadio"
*.*_car[*].wlan[*].radio.transmitter.headerLength = 96b
*.*_car[*].wlan[*].radio.transmitter.communicationRange = 250m
*.*_car[*].wlan[*].radio.transmitter.interferenceRange = 0m
*.*_car[*].wlan[*].radio.transmitter.detectionRange = 0m
*.*_car[*].wlan[*].radio.receiver.ignoreInterference = true

# IP Configurator
*.*_car[*].ipv4.configurator.typename = "HostAutoConfigurator"
*.*_car[*].ipv4.configurator.interfaces = "wlan0"
*.*_car[*].ipv4.configurator.mcastGroups = "224.0.0.1"

# ============================================
# STATISTICHE
# ============================================
**.vector-recording = false
**.scalar-recording = true
**.wlan[*].*.scalar-recording = false
**.radioMedium.*.scalar-recording = false
**.mobility.*.scalar-recording = false

*.normal_car[*].app[*].scalar-recording = true
*.attacker_car[*].app[*].scalar-recording = true

**.trustManager.scalar-recording = true
**.trustManager.detectionTP.result-recording-modes = +count
**.trustManager.detectionFP.result-recording-modes = +count
**.trustManager.detectionFN.result-recording-modes = +count
**.trustManager.detectionTN.result-recording-modes = +count

# Mobility
*.*_car[*].mobility.typename = "VeinsInetMobility"
*.manager.updateInterval = 0.1s

# ============================================
# APPLICAZIONI UDP — stesse coppie del grayhole large
# ============================================

*.normal_car[44].numApps = 1
*.normal_car[44].app[0].typename = "UdpBasicApp"
*.normal_car[44].app[0].destAddresses = "normal_car[25]"
*.normal_car[44].app[0].localPort = 5000
*.normal_car[44].app[0].destPort = 5000
*.normal_car[44].app[0].messageLength = 512B
*.normal_car[44].app[0].sendInterval = 0.25s
*.normal_car[44].app[0].startTime = 185s
*.normal_car[44].app[0].packetName = "UDPData"

*.normal_car[26].numApps = 1
*.normal_car[26].app[0].typename = "UdpBasicApp"
*.normal_car[26].app[0].destAddresses = "normal_car[24]"
*.normal_car[26].app[0].localPort = 5000
*.normal_car[26].app[0].destPort = 5000
*.normal_car[26].app[0].messageLength = 512B
*.normal_car[26].app[0].sendInterval = 0.25s
*.normal_car[26].app[0].startTime = 95s
*.normal_car[26].app[0].packetName = "UDPData"

*.normal_car[39].numApps = 1
*.normal_car[39].app[0].typename = "UdpBasicApp"
*.normal_car[39].app[0].destAddresses = "normal_car[32]"
*.normal_car[39].app[0].localPort = 5000
*.normal_car[39].app[0].destPort = 5000
*.normal_car[39].app[0].messageLength = 512B
*.normal_car[39].app[0].sendInterval = 0.25s
*.normal_car[39].app[0].startTime = 145s
*.normal_car[39].app[0].packetName = "UDPData"

*.normal_car[45].numApps = 1
*.normal_car[45].app[0].typename = "UdpBasicApp"
*.normal_car[45].app[0].destAddresses = "normal_car[40]"
*.normal_car[45].app[0].localPort = 5000
*.normal_car[45].app[0].destPort = 5000
*.normal_car[45].app[0].messageLength = 512B
*.normal_car[45].app[0].sendInterval = 0.25s
*.normal_car[45].app[0].startTime = 190s
*.normal_car[45].app[0].packetName = "UDPData"

*.normal_car[67].numApps = 1
*.normal_car[67].app[0].typename = "UdpBasicApp"
*.normal_car[67].app[0].destAddresses = "normal_car[42]"
*.normal_car[67].app[0].localPort = 5000
*.normal_car[67].app[0].destPort = 5000
*.normal_car[67].app[0].messageLength = 512B
*.normal_car[67].app[0].sendInterval = 0.25s
*.normal_car[67].app[0].startTime = 250s
*.normal_car[67].app[0].packetName = "UDPData"

*.normal_car[63].numApps = 1
*.normal_car[63].app[0].typename = "UdpBasicApp"
*.normal_car[63].app[0].destAddresses = "normal_car[44]"
*.normal_car[63].app[0].localPort = 5000
*.normal_car[63].app[0].destPort = 5000
*.normal_car[63].app[0].messageLength = 512B
*.normal_car[63].app[0].sendInterval = 0.25s
*.normal_car[63].app[0].startTime = 230s
*.normal_car[63].app[0].packetName = "UDPData"

# Default: tutti gli altri sono sink
*.normal_car[*].numApps = 1
*.normal_car[*].app[0].typename = "UdpSink"
*.normal_car[*].app[0].localPort = 5000

*.attacker_car[*].numApps = 1
*.attacker_car[*].app[0].typename = "UdpSink"
*.attacker_car[*].app[0].localPort = 5000

# ============================================================
# PARAMETRI ATTACCANTE
# ============================================================
*.attacker_car[*].routing.replayStart = 9.90s
*.attacker_car[*].routing.replayLatency = 0.2s
*.attacker_car[*].routing.bufferWindow = 3s
*.attacker_car[*].routing.targetIpv4 = -1
*.attacker_car[*].routing.enableForgery = true
*.attacker_car[*].routing.enablePureReplay = true
*.attacker_car[*].routing.pureReplayDelay = 0.1s
*.attacker_car[*].routing.blacklistTimeout = 0s

# ============================================================
# RACCOLTA STATISTICHE
# ============================================================
**.scalar-recording = true
**.vector-recording = false

*.normal_car[*].app[*].scalar-recording = true
*.attacker_car[*].app[*].scalar-recording = true

*.normal_car[*].app[*].endToEndDelay:mean.result-recording-modes = +mean
*.normal_car[*].app[*].endToEndDelay:vector.vector-recording = true

**.wlan[*].*.scalar-recording = false
**.radioMedium.*.scalar-recording = false
**.mobility.*.scalar-recording = false
**.routing.*.scalar-recording = true

# ============================================
# VISUALIZATION
# ============================================
*.visualizer.networkRouteVisualizer.displayRoutes = true
*.*_car[*].wlan[0].radio.displayCommunicationRange = true

# ============================================================
# SCENARIO 1 — BASELINE
# ============================================================
[Config S1_NoAttack_Large_noattack]
description = "Baseline AODV puro - Large senza attaccanti"
*.manager.launchConfig = xmldoc("arcavacatamap_large_noattack.launchd.xml")
*.manager.moduleType = "normal_car=networkprojectvanet.veins_inet.AodvCar slow_car=networkprojectvanet.veins_inet.AodvCar attacker_car=networkprojectvanet.veins_inet.AodvCar"
*.manager.moduleName = "normal_car=normal_car slow_car=normal_car attacker_car=normal_car"
*.manager.moduleDisplayString = "normal_car='i=veins/node/car;is=vs'"
**.routing.debug = false

# ============================================================
# SCENARIO 2 — SOTTO ATTACCO
# ============================================================
[Config S2_Attack_Large_8pct]
description = "Replay attack - Large 8%"
*.manager.launchConfig = xmldoc("arcavacatamap_large_8pct.launchd.xml")
*.manager.moduleType = "normal_car=networkprojectvanet.veins_inet.AodvCar slow_car=networkprojectvanet.veins_inet.AodvCar attacker_car=networkprojectvanet.replay.replay_attack.AttackerAodvReplayCar"
*.manager.moduleName = "normal_car=normal_car slow_car=normal_car attacker_car=attacker_car"
*.manager.moduleDisplayString = "normal_car='i=veins/node/car;is=vs' attacker_car='i=veins/node/car,red;is=vs'"
**.routing.debug = false

[Config S2_Attack_Large_15pct]
description = "Replay attack - Large 15%"
*.manager.launchConfig = xmldoc("arcavacatamap_large_15pct.launchd.xml")
*.manager.moduleType = "normal_car=networkprojectvanet.veins_inet.AodvCar slow_car=networkprojectvanet.veins_inet.AodvCar attacker_car=networkprojectvanet.replay.replay_attack.AttackerAodvReplayCar"
*.manager.moduleName = "normal_car=normal_car slow_car=normal_car attacker_car=attacker_car"
*.manager.moduleDisplayString = "normal_car='i=veins/node/car;is=vs' attacker_car='i=veins/node/car,red;is=vs'"
**.routing.debug = false

[Config S2_Attack_Large_30pct]
description = "Replay attack - Large 30%"
*.manager.launchConfig = xmldoc("arcavacatamap_large_30pct.launchd.xml")
*.manager.moduleType = "normal_car=networkprojectvanet.veins_inet.AodvCar slow_car=networkprojectvanet.veins_inet.AodvCar attacker_car=networkprojectvanet.replay.replay_attack.AttackerAodvReplayCar"
*.manager.moduleName = "normal_car=normal_car slow_car=normal_car attacker_car=attacker_car"
*.manager.moduleDisplayString = "normal_car='i=veins/node/car;is=vs' attacker_car='i=veins/node/car,red;is=vs'"
**.routing.debug = false

[Config S2_Attack_Large_40pct]
description = "Replay attack - Large 40%"
*.manager.launchConfig = xmldoc("arcavacatamap_large_40pct.launchd.xml")
*.manager.moduleType = "normal_car=networkprojectvanet.veins_inet.AodvCar slow_car=networkprojectvanet.veins_inet.AodvCar attacker_car=networkprojectvanet.replay.replay_attack.AttackerAodvReplayCar"
*.manager.moduleName = "normal_car=normal_car slow_car=normal_car attacker_car=attacker_car"
*.manager.moduleDisplayString = "normal_car='i=veins/node/car;is=vs' attacker_car='i=veins/node/car,red;is=vs'"
**.routing.debug = false

[Config S2_Attack_Large_50pct]
description = "Replay attack - Large 50%"
*.manager.launchConfig = xmldoc("arcavacatamap_large_50pct.launchd.xml")
*.manager.moduleType = "normal_car=networkprojectvanet.veins_inet.AodvCar slow_car=networkprojectvanet.veins_inet.AodvCar attacker_car=networkprojectvanet.replay.replay_attack.AttackerAodvReplayCar"
*.manager.moduleName = "normal_car=normal_car slow_car=normal_car attacker_car=attacker_car"
*.manager.moduleDisplayString = "normal_car='i=veins/node/car;is=vs' attacker_car='i=veins/node/car,red;is=vs'"
**.routing.debug = false

[Config S2_Attack_Large_60pct]
description = "Replay attack - Large 60%"
*.manager.launchConfig = xmldoc("arcavacatamap_large_60pct.launchd.xml")
*.manager.moduleType = "normal_car=networkprojectvanet.veins_inet.AodvCar slow_car=networkprojectvanet.veins_inet.AodvCar attacker_car=networkprojectvanet.replay.replay_attack.AttackerAodvReplayCar"
*.manager.moduleName = "normal_car=normal_car slow_car=normal_car attacker_car=attacker_car"
*.manager.moduleDisplayString = "normal_car='i=veins/node/car;is=vs' attacker_car='i=veins/node/car,red;is=vs'"
**.routing.debug = false

# ============================================================
# SCENARIO 3 — ATTACCO + MITIGAZIONE RSA
# ============================================================
[Config S3_RSA_Large_8pct]
description = "Replay attack + mitigazione RSA - Large 8%"
*.manager.launchConfig = xmldoc("arcavacatamap_large_8pct.launchd.xml")
*.manager.moduleType = "normal_car=networkprojectvanet.replay.replay_mitigation_rsa.map_table.RsaAodvCar slow_car=networkprojectvanet.replay.replay_mitigation_rsa.map_table.RsaAodvCar attacker_car=networkprojectvanet.replay.replay_attack.AttackerAodvReplayCar"
*.manager.moduleName = "normal_car=normal_car slow_car=normal_car attacker_car=attacker_car"
*.manager.moduleDisplayString = "normal_car='i=veins/node/car;is=vs' attacker_car='i=veins/node/car,red;is=vs'"
*.normal_car[*].routing.pubKeyMapJson = "/home/giada/NetworkProjectVanet/src/replay/replay_mitigation_rsa/keys/pubkeys.json"
*.normal_car[*].routing.freshnessWindow = 2s
*.normal_car[*].routing.entryTimeout = 30s
*.normal_car[*].routing.gcInterval = 10s
*.normal_car[*].routing.maxCacheSize = 1000
**.routing.debug = false
*.normal_car[*].routing.attackerNodeIds = "node0 node8 node17 node27 node48 node57"


[Config S3_RSA_Large_15pct]
description = "Replay attack + mitigazione RSA - Large 15%"
*.manager.launchConfig = xmldoc("arcavacatamap_large_15pct.launchd.xml")
*.manager.moduleType = "normal_car=networkprojectvanet.replay.replay_mitigation_rsa.map_table.RsaAodvCar slow_car=networkprojectvanet.replay.replay_mitigation_rsa.map_table.RsaAodvCar attacker_car=networkprojectvanet.replay.replay_attack.AttackerAodvReplayCar"
*.manager.moduleName = "normal_car=normal_car slow_car=normal_car attacker_car=attacker_car"
*.manager.moduleDisplayString = "normal_car='i=veins/node/car;is=vs' attacker_car='i=veins/node/car,red;is=vs'"
*.normal_car[*].routing.pubKeyMapJson = "/home/giada/NetworkProjectVanet/src/replay/replay_mitigation_rsa/keys/pubkeys.json"
*.normal_car[*].routing.freshnessWindow = 2s
*.normal_car[*].routing.entryTimeout = 30s
*.normal_car[*].routing.gcInterval = 10s
*.normal_car[*].routing.maxCacheSize = 1000
**.routing.debug = false
*.normal_car[*].routing.attackerNodeIds = "node0 node4 node9 node14 node19 node46 node50 node55 node58 node60"


[Config S3_RSA_Large_30pct]
description = "Replay attack + mitigazione RSA - Large 30%"
*.manager.launchConfig = xmldoc("arcavacatamap_large_30pct.launchd.xml")
*.manager.moduleType = "normal_car=networkprojectvanet.replay.replay_mitigation_rsa.map_table.RsaAodvCar slow_car=networkprojectvanet.replay.replay_mitigation_rsa.map_table.RsaAodvCar attacker_car=networkprojectvanet.replay.replay_attack.AttackerAodvReplayCar"
*.manager.moduleName = "normal_car=normal_car slow_car=normal_car attacker_car=attacker_car"
*.manager.moduleDisplayString = "normal_car='i=veins/node/car;is=vs' attacker_car='i=veins/node/car,red;is=vs'"
*.normal_car[*].routing.pubKeyMapJson = "/home/giada/NetworkProjectVanet/src/replay/replay_mitigation_rsa/keys/pubkeys.json"
*.normal_car[*].routing.freshnessWindow = 2s
*.normal_car[*].routing.entryTimeout = 30s
*.normal_car[*].routing.gcInterval = 10s
*.normal_car[*].routing.maxCacheSize = 1000
**.routing.debug = false
*.normal_car[*].routing.attackerNodeIds = "node0 node2 node4 node7 node9 node12 node14 node16 node19 node21 node28 node46 node48 node50 node53 node55 node58 node60 node62"


[Config S3_RSA_Large_40pct]
description = "Replay attack + mitigazione RSA - Large 40%"
*.manager.launchConfig = xmldoc("arcavacatamap_large_40pct.launchd.xml")
*.manager.moduleType = "normal_car=networkprojectvanet.replay.replay_mitigation_rsa.map_table.RsaAodvCar slow_car=networkprojectvanet.replay.replay_mitigation_rsa.map_table.RsaAodvCar attacker_car=networkprojectvanet.replay.replay_attack.AttackerAodvReplayCar"
*.manager.moduleName = "normal_car=normal_car slow_car=normal_car attacker_car=attacker_car"
*.manager.moduleDisplayString = "normal_car='i=veins/node/car;is=vs' attacker_car='i=veins/node/car,red;is=vs'"
*.normal_car[*].routing.pubKeyMapJson = "/home/giada/NetworkProjectVanet/src/replay/replay_mitigation_rsa/keys/pubkeys.json"
*.normal_car[*].routing.freshnessWindow = 2s
*.normal_car[*].routing.entryTimeout = 30s
*.normal_car[*].routing.gcInterval = 10s
*.normal_car[*].routing.maxCacheSize = 1000
**.routing.debug = false
*.normal_car[*].routing.attackerNodeIds = "node0 node1 node3 node5 node7 node8 node10 node12 node14 node15 node17 node19 node21 node22 node27 node28 node30 node46 node48 node50 node52 node53 node55 node57 node59 node60 node61 node62"


[Config S3_RSA_Large_50pct]
description = "Replay attack + mitigazione RSA - Large 50%"
*.manager.launchConfig = xmldoc("arcavacatamap_large_50pct.launchd.xml")
*.manager.moduleType = "normal_car=networkprojectvanet.replay.replay_mitigation_rsa.map_table.RsaAodvCar slow_car=networkprojectvanet.replay.replay_mitigation_rsa.map_table.RsaAodvCar attacker_car=networkprojectvanet.replay.replay_attack.AttackerAodvReplayCar"
*.manager.moduleName = "normal_car=normal_car slow_car=normal_car attacker_car=attacker_car"
*.manager.moduleDisplayString = "normal_car='i=veins/node/car;is=vs' attacker_car='i=veins/node/car,red;is=vs'"
*.normal_car[*].routing.pubKeyMapJson = "/home/giada/NetworkProjectVanet/src/replay/replay_mitigation_rsa/keys/pubkeys.json"
*.normal_car[*].routing.freshnessWindow = 2s
*.normal_car[*].routing.entryTimeout = 30s
*.normal_car[*].routing.gcInterval = 10s
*.normal_car[*].routing.maxCacheSize = 1000
**.routing.debug = false
*.normal_car[*].routing.attackerNodeIds = "node0 node1 node2 node4 node5 node6 node8 node9 node11 node12 node13 node15 node16 node18 node19 node20 node22 node23 node27 node29 node30 node47 node48 node49 node51 node52 node54 node55 node56 node58 node59 node60 node61 node62"


[Config S3_RSA_Large_60pct]
description = "Replay attack + mitigazione RSA - Large 60%"
*.manager.launchConfig = xmldoc("arcavacatamap_large_60pct.launchd.xml")
*.manager.moduleType = "normal_car=networkprojectvanet.replay.replay_mitigation_rsa.map_table.RsaAodvCar slow_car=networkprojectvanet.replay.replay_mitigation_rsa.map_table.RsaAodvCar attacker_car=networkprojectvanet.replay.replay_attack.AttackerAodvReplayCar"
*.manager.moduleName = "normal_car=normal_car slow_car=normal_car attacker_car=attacker_car"
*.manager.moduleDisplayString = "normal_car='i=veins/node/car;is=vs' attacker_car='i=veins/node/car,red;is=vs'"
*.normal_car[*].routing.pubKeyMapJson = "/home/giada/NetworkProjectVanet/src/replay/replay_mitigation_rsa/keys/pubkeys.json"
*.normal_car[*].routing.freshnessWindow = 2s
*.normal_car[*].routing.entryTimeout = 30s
*.normal_car[*].routing.gcInterval = 10s
*.normal_car[*].routing.maxCacheSize = 1000
**.routing.debug = false
*.normal_car[*].routing.attackerNodeIds = "node0 node1 node2 node3 node4 node5 node7 node8 node9 node10 node11 node12 node14 node15 node16 node17 node18 node20 node21 node22 node23 node27 node28 node30 node46 node47 node49 node50 node51 node52 node53 node54 node56 node57 node58 node59 node60 node61 node62"


# ============================================================
# SCENARIO 4 — ATTACCO + MITIGAZIONE ECDSA
# ============================================================
[Config S4_ECDSA_Large_8pct]
description = "Replay attack + mitigazione ECDSA - Large 8%"
*.manager.launchConfig = xmldoc("arcavacatamap_large_8pct.launchd.xml")
*.manager.moduleType = "normal_car=networkprojectvanet.replay.replay_mitigation_ecdsa.map_table.EcdsaAodvCar slow_car=networkprojectvanet.replay.replay_mitigation_ecdsa.map_table.EcdsaAodvCar attacker_car=networkprojectvanet.replay.replay_attack.AttackerAodvReplayCar"
*.manager.moduleName = "normal_car=normal_car slow_car=normal_car attacker_car=attacker_car"
*.manager.moduleDisplayString = "normal_car='i=veins/node/car;is=vs' attacker_car='i=veins/node/car,red;is=vs'"
*.normal_car[*].routing.ecdsaPubKeyMapJson = "/home/giada/NetworkProjectVanet/src/replay/replay_mitigation_ecdsa/keys/pubkeys_ecdsa.json"
*.normal_car[*].routing.freshnessWindow = 2s
*.normal_car[*].routing.entryTimeout = 30s
*.normal_car[*].routing.gcInterval = 10s
*.normal_car[*].routing.maxCacheSize = 1000
**.routing.debug = false
*.normal_car[*].routing.attackerNodeIds = "node0 node8 node17 node27 node48 node57"


[Config S4_ECDSA_Large_15pct]
description = "Replay attack + mitigazione ECDSA - Large 15%"
*.manager.launchConfig = xmldoc("arcavacatamap_large_15pct.launchd.xml")
*.manager.moduleType = "normal_car=networkprojectvanet.replay.replay_mitigation_ecdsa.map_table.EcdsaAodvCar slow_car=networkprojectvanet.replay.replay_mitigation_ecdsa.map_table.EcdsaAodvCar attacker_car=networkprojectvanet.replay.replay_attack.AttackerAodvReplayCar"
*.manager.moduleName = "normal_car=normal_car slow_car=normal_car attacker_car=attacker_car"
*.manager.moduleDisplayString = "normal_car='i=veins/node/car;is=vs' attacker_car='i=veins/node/car,red;is=vs'"
*.normal_car[*].routing.ecdsaPubKeyMapJson = "/home/giada/NetworkProjectVanet/src/replay/replay_mitigation_ecdsa/keys/pubkeys_ecdsa.json"
*.normal_car[*].routing.freshnessWindow = 2s
*.normal_car[*].routing.entryTimeout = 30s
*.normal_car[*].routing.gcInterval = 10s
*.normal_car[*].routing.maxCacheSize = 1000
**.routing.debug = false
*.normal_car[*].routing.attackerNodeIds = "node0 node4 node9 node14 node19 node46 node50 node55 node58 node60"


[Config S4_ECDSA_Large_30pct]
description = "Replay attack + mitigazione ECDSA - Large 30%"
*.manager.launchConfig = xmldoc("arcavacatamap_large_30pct.launchd.xml")
*.manager.moduleType = "normal_car=networkprojectvanet.replay.replay_mitigation_ecdsa.map_table.EcdsaAodvCar slow_car=networkprojectvanet.replay.replay_mitigation_ecdsa.map_table.EcdsaAodvCar attacker_car=networkprojectvanet.replay.replay_attack.AttackerAodvReplayCar"
*.manager.moduleName = "normal_car=normal_car slow_car=normal_car attacker_car=attacker_car"
*.manager.moduleDisplayString = "normal_car='i=veins/node/car;is=vs' attacker_car='i=veins/node/car,red;is=vs'"
*.normal_car[*].routing.ecdsaPubKeyMapJson = "/home/giada/NetworkProjectVanet/src/replay/replay_mitigation_ecdsa/keys/pubkeys_ecdsa.json"
*.normal_car[*].routing.freshnessWindow = 2s
*.normal_car[*].routing.entryTimeout = 30s
*.normal_car[*].routing.gcInterval = 10s
*.normal_car[*].routing.maxCacheSize = 1000
**.routing.debug = false
*.normal_car[*].routing.attackerNodeIds = "node0 node2 node4 node7 node9 node12 node14 node16 node19 node21 node28 node46 node48 node50 node53 node55 node58 node60 node62"


[Config S4_ECDSA_Large_40pct]
description = "Replay attack + mitigazione ECDSA - Large 40%"
*.manager.launchConfig = xmldoc("arcavacatamap_large_40pct.launchd.xml")
*.manager.moduleType = "normal_car=networkprojectvanet.replay.replay_mitigation_ecdsa.map_table.EcdsaAodvCar slow_car=networkprojectvanet.replay.replay_mitigation_ecdsa.map_table.EcdsaAodvCar attacker_car=networkprojectvanet.replay.replay_attack.AttackerAodvReplayCar"
*.manager.moduleName = "normal_car=normal_car slow_car=normal_car attacker_car=attacker_car"
*.manager.moduleDisplayString = "normal_car='i=veins/node/car;is=vs' attacker_car='i=veins/node/car,red;is=vs'"
*.normal_car[*].routing.ecdsaPubKeyMapJson = "/home/giada/NetworkProjectVanet/src/replay/replay_mitigation_ecdsa/keys/pubkeys_ecdsa.json"
*.normal_car[*].routing.freshnessWindow = 2s
*.normal_car[*].routing.entryTimeout = 30s
*.normal_car[*].routing.gcInterval = 10s
*.normal_car[*].routing.maxCacheSize = 1000
**.routing.debug = false
*.normal_car[*].routing.attackerNodeIds = "node0 node1 node3 node5 node7 node8 node10 node12 node14 node15 node17 node19 node21 node22 node27 node28 node30 node46 node48 node50 node52 node53 node55 node57 node59 node60 node61 node62"


[Config S4_ECDSA_Large_50pct]
description = "Replay attack + mitigazione ECDSA - Large 50%"
*.manager.launchConfig = xmldoc("arcavacatamap_large_50pct.launchd.xml")
*.manager.moduleType = "normal_car=networkprojectvanet.replay.replay_mitigation_ecdsa.map_table.EcdsaAodvCar slow_car=networkprojectvanet.replay.replay_mitigation_ecdsa.map_table.EcdsaAodvCar attacker_car=networkprojectvanet.replay.replay_attack.AttackerAodvReplayCar"
*.manager.moduleName = "normal_car=normal_car slow_car=normal_car attacker_car=attacker_car"
*.manager.moduleDisplayString = "normal_car='i=veins/node/car;is=vs' attacker_car='i=veins/node/car,red;is=vs'"
*.normal_car[*].routing.ecdsaPubKeyMapJson = "/home/giada/NetworkProjectVanet/src/replay/replay_mitigation_ecdsa/keys/pubkeys_ecdsa.json"
*.normal_car[*].routing.freshnessWindow = 2s
*.normal_car[*].routing.entryTimeout = 30s
*.normal_car[*].routing.gcInterval = 10s
*.normal_car[*].routing.maxCacheSize = 1000
**.routing.debug = false
*.normal_car[*].routing.attackerNodeIds = "node0 node1 node2 node4 node5 node6 node8 node9 node11 node12 node13 node15 node16 node18 node19 node20 node22 node23 node27 node29 node30 node47 node48 node49 node51 node52 node54 node55 node56 node58 node59 node60 node61 node62"


[Config S4_ECDSA_Large_60pct]
description = "Replay attack + mitigazione ECDSA - Large 60%"
*.manager.launchConfig = xmldoc("arcavacatamap_large_60pct.launchd.xml")
*.manager.moduleType = "normal_car=networkprojectvanet.replay.replay_mitigation_ecdsa.map_table.EcdsaAodvCar slow_car=networkprojectvanet.replay.replay_mitigation_ecdsa.map_table.EcdsaAodvCar attacker_car=networkprojectvanet.replay.replay_attack.AttackerAodvReplayCar"
*.manager.moduleName = "normal_car=normal_car slow_car=normal_car attacker_car=attacker_car"
*.manager.moduleDisplayString = "normal_car='i=veins/node/car;is=vs' attacker_car='i=veins/node/car,red;is=vs'"
*.normal_car[*].routing.ecdsaPubKeyMapJson = "/home/giada/NetworkProjectVanet/src/replay/replay_mitigation_ecdsa/keys/pubkeys_ecdsa.json"
*.normal_car[*].routing.freshnessWindow = 2s
*.normal_car[*].routing.entryTimeout = 30s
*.normal_car[*].routing.gcInterval = 10s
*.normal_car[*].routing.maxCacheSize = 1000
**.routing.debug = false
*.normal_car[*].routing.attackerNodeIds = "node0 node1 node2 node3 node4 node5 node7 node8 node9 node10 node11 node12 node14 node15 node16 node17 node18 node20 node21 node22 node23 node27 node28 node30 node46 node47 node49 node50 node51 node52 node53 node54 node56 node57 node58 node59 node60 node61 node62"


# ============================================================
# SCENARIO 5 — RSA SENZA ATTACCO
# ============================================================
[Config S5_RSA_NoAttack_Large]
description = "Mitigazione RSA senza attacco - Large"
*.manager.launchConfig = xmldoc("arcavacatamap_large_noattack.launchd.xml")
*.manager.moduleType = "normal_car=networkprojectvanet.replay.replay_mitigation_rsa.map_table.RsaAodvCar slow_car=networkprojectvanet.replay.replay_mitigation_rsa.map_table.RsaAodvCar attacker_car=networkprojectvanet.replay.replay_mitigation_rsa.map_table.RsaAodvCar"
*.manager.moduleName = "normal_car=normal_car slow_car=normal_car attacker_car=normal_car"
*.manager.moduleDisplayString = "normal_car='i=veins/node/car;is=vs'"
*.normal_car[*].routing.pubKeyMapJson = "/home/giada/NetworkProjectVanet/src/replay/replay_mitigation_rsa/keys/pubkeys.json"
*.normal_car[*].routing.freshnessWindow = 2s
*.normal_car[*].routing.entryTimeout = 30s
*.normal_car[*].routing.gcInterval = 10s
*.normal_car[*].routing.maxCacheSize = 1000
**.routing.debug = false

# ============================================================
# SCENARIO 6 — ECDSA SENZA ATTACCO
# ============================================================
[Config S6_ECDSA_NoAttack_Large]
description = "Mitigazione ECDSA senza attacco - Large"
*.manager.launchConfig = xmldoc("arcavacatamap_large_noattack.launchd.xml")
*.manager.moduleType = "normal_car=networkprojectvanet.replay.replay_mitigation_ecdsa.map_table.EcdsaAodvCar slow_car=networkprojectvanet.replay.replay_mitigation_ecdsa.map_table.EcdsaAodvCar attacker_car=networkprojectvanet.replay.replay_mitigation_ecdsa.map_table.EcdsaAodvCar"
*.manager.moduleName = "normal_car=normal_car slow_car=normal_car attacker_car=normal_car"
*.manager.moduleDisplayString = "normal_car='i=veins/node/car;is=vs'"
*.normal_car[*].routing.ecdsaPubKeyMapJson = "/home/giada/NetworkProjectVanet/src/replay/replay_mitigation_ecdsa/keys/pubkeys_ecdsa.json"
*.normal_car[*].routing.freshnessWindow = 2s
*.normal_car[*].routing.entryTimeout = 30s
*.normal_car[*].routing.gcInterval = 10s
*.normal_car[*].routing.maxCacheSize = 1000
**.routing.debug = false