[General]
network = networkprojectvanet.simulations.replay.Scenario

cmdenv-express-mode = true
cmdenv-status-frequency = 0s

sim-time-limit = 300s
warmup-period = 10s
repeat = 50
seed-set = ${repetition}

# ARP
*.*_car[*].ipv4.arp.typename = "Arp"

# Forwarding
*.normal_car[*].ipv4.ip.forwarding = true
*.normal_car[*].ipv4.ip.procDelay = 0s
*.attacker_car[*].ipv4.ip.forwarding = true
*.attacker_car[*].ipv4.ip.procDelay = 0s

# Routing table
*.normal_car[*].ipv4.routingTable.routingFile = ""
*.normal_car[*].ipv4.routingTable.netmaskRoutes = ""
*.normal_car[*].ipv4.configurator.addDefaultRoutes = false
*.normal_car[*].ipv4.configurator.addStaticRoutes = false
*.normal_car[*].ipv4.configurator.addSubnetRoutes = false
*.attacker_car[*].ipv4.routingTable.routingFile = ""
*.attacker_car[*].ipv4.routingTable.netmaskRoutes = ""
*.attacker_car[*].ipv4.configurator.addDefaultRoutes = false
*.attacker_car[*].ipv4.configurator.addStaticRoutes = false
*.attacker_car[*].ipv4.configurator.addSubnetRoutes = false

# AODV settings nodi normali
*.normal_car[*].routing.useHelloMessages = true
*.normal_car[*].routing.maxQueuedPackets = 3
*.normal_car[*].routing.maxQueueTime = 60s
*.normal_car[*].routing.activeRouteTimeout = 10s
*.normal_car[*].routing.helloInterval = 2s
*.normal_car[*].routing.allowedHelloLoss = 2
*.normal_car[*].routing.netDiameter = 35
*.normal_car[*].routing.rreqRetries = 2
*.normal_car[*].routing.rreqRatelimit = 3
*.normal_car[*].routing.destinationOnlyFlag = false
*.normal_car[*].routing.deletePeriod = 5s
*.normal_car[*].routing.ttlStart = 2
*.normal_car[*].routing.ttlIncrement = 2
*.normal_car[*].routing.ttlThreshold = 7

# AODV settings attaccanti
*.attacker_car[*].routing.useHelloMessages = true
*.attacker_car[*].routing.maxQueuedPackets = 3
*.attacker_car[*].routing.maxQueueTime = 60s
*.attacker_car[*].routing.activeRouteTimeout = 10s
*.attacker_car[*].routing.helloInterval = 2s
*.attacker_car[*].routing.allowedHelloLoss = 2
*.attacker_car[*].routing.netDiameter = 35
*.attacker_car[*].routing.rreqRetries = 2
*.attacker_car[*].routing.rreqRatelimit = 3
*.attacker_car[*].routing.destinationOnlyFlag = false
*.attacker_car[*].routing.deletePeriod = 5s

# Radio
*.*_car[*].wlan[*].typename = "AckingWirelessInterface"
*.*_car[*].wlan[*].bitrate = 2Mbps
*.*_car[*].wlan[*].mac.headerLength = 23B
*.*_car[*].wlan[*].radio.typename = "UnitDiskRadio"
*.*_car[*].wlan[*].radio.transmitter.headerLength = 96b
*.*_car[*].wlan[*].radio.transmitter.communicationRange = 250m
*.*_car[*].wlan[*].radio.transmitter.interferenceRange = 0m
*.*_car[*].wlan[*].radio.transmitter.detectionRange = 0m
*.*_car[*].wlan[*].radio.receiver.ignoreInterference = true

# IP Configurator
*.*_car[*].ipv4.configurator.typename = "HostAutoConfigurator"
*.*_car[*].ipv4.configurator.interfaces = "wlan0"
*.*_car[*].ipv4.configurator.mcastGroups = "224.0.0.1"

# ============================================
# STATISTICHE
# ============================================
**.vector-recording = false
**.scalar-recording = true
**.wlan[*].*.scalar-recording = false
**.radioMedium.*.scalar-recording = false
**.mobility.*.scalar-recording = false

*.normal_car[*].app[*].scalar-recording = true
*.attacker_car[*].app[*].scalar-recording = true

**.trustManager.scalar-recording = true
**.trustManager.detectionTP.result-recording-modes = +count
**.trustManager.detectionFP.result-recording-modes = +count
**.trustManager.detectionFN.result-recording-modes = +count
**.trustManager.detectionTN.result-recording-modes = +count

# Mobility
*.*_car[*].mobility.typename = "VeinsInetMobility"
*.manager.updateInterval = 0.1s

# ============================================
# APPLICAZIONI UDP — 3 coppie sorgente-dest (medium)
# ============================================

*.normal_car[29].numApps = 1
*.normal_car[29].app[0].typename = "UdpBasicApp"
*.normal_car[29].app[0].destAddresses = "normal_car[19]"
*.normal_car[29].app[0].localPort = 5000
*.normal_car[29].app[0].destPort = 5000
*.normal_car[29].app[0].messageLength = 512B
*.normal_car[29].app[0].sendInterval = 0.25s
*.normal_car[29].app[0].startTime = 95s
*.normal_car[29].app[0].packetName = "UDPData"

*.normal_car[39].numApps = 1
*.normal_car[39].app[0].typename = "UdpBasicApp"
*.normal_car[39].app[0].destAddresses = "normal_car[29]"
*.normal_car[39].app[0].localPort = 5000
*.normal_car[39].app[0].destPort = 5000
*.normal_car[39].app[0].messageLength = 512B
*.normal_car[39].app[0].sendInterval = 0.25s
*.normal_car[39].app[0].startTime = 95s
*.normal_car[39].app[0].packetName = "UDPData"

*.normal_car[49].numApps = 1
*.normal_car[49].app[0].typename = "UdpBasicApp"
*.normal_car[49].app[0].destAddresses = "normal_car[39]"
*.normal_car[49].app[0].localPort = 5000
*.normal_car[49].app[0].destPort = 5000
*.normal_car[49].app[0].messageLength = 512B
*.normal_car[49].app[0].sendInterval = 0.25s
*.normal_car[49].app[0].startTime = 95s
*.normal_car[49].app[0].packetName = "UDPData"

# Default: tutti gli altri sono sink
*.normal_car[*].numApps = 1
*.normal_car[*].app[0].typename = "UdpSink"
*.normal_car[*].app[0].localPort = 5000

*.attacker_car[*].numApps = 1
*.attacker_car[*].app[0].typename = "UdpSink"
*.attacker_car[*].app[0].localPort = 5000

# ============================================================
# PARAMETRI ATTACCANTE
# ============================================================
*.attacker_car[*].routing.replayStart = 9.90s
*.attacker_car[*].routing.replayLatency = 0.2s
*.attacker_car[*].routing.bufferWindow = 3s
*.attacker_car[*].routing.targetIpv4 = -1
*.attacker_car[*].routing.enableForgery = true
*.attacker_car[*].routing.enablePureReplay = true
*.attacker_car[*].routing.pureReplayDelay = 0.1s
*.attacker_car[*].routing.blacklistTimeout = 0s

# ============================================================
# RACCOLTA STATISTICHE
# ============================================================
**.scalar-recording = true
**.vector-recording = false

*.normal_car[*].app[*].scalar-recording = true
*.attacker_car[*].app[*].scalar-recording = true

*.normal_car[*].app[*].endToEndDelay:mean.result-recording-modes = +mean
*.normal_car[*].app[*].endToEndDelay:vector.vector-recording = true

**.wlan[*].*.scalar-recording = false
**.radioMedium.*.scalar-recording = false
**.mobility.*.scalar-recording = false
**.routing.*.scalar-recording = true

# ============================================
# VISUALIZATION
# ============================================
*.visualizer.networkRouteVisualizer.displayRoutes = true
*.*_car[*].wlan[0].radio.displayCommunicationRange = true

# ============================================================
# SCENARIO 1 — BASELINE
# ============================================================
[Config S1_NoAttack_Medium_noattack]
description = "Baseline AODV puro - Medium senza attaccanti"
*.manager.launchConfig = xmldoc("arcavacatamap_medium_noattack.launchd.xml")
*.manager.moduleType = "normal_car=networkprojectvanet.veins_inet.AodvCar slow_car=networkprojectvanet.veins_inet.AodvCar attacker_car=networkprojectvanet.veins_inet.AodvCar"
*.manager.moduleName = "normal_car=normal_car slow_car=normal_car attacker_car=normal_car"
*.manager.moduleDisplayString = "normal_car='i=veins/node/car;is=vs'"
**.routing.debug = false

# ============================================================
# SCENARIO 2 — SOTTO ATTACCO
# ============================================================
[Config S2_Attack_Medium_8pct]
description = "Replay attack - Medium 8%"
*.manager.launchConfig = xmldoc("arcavacatamap_medium_8pct.launchd.xml")
*.manager.moduleType = "normal_car=networkprojectvanet.veins_inet.AodvCar slow_car=networkprojectvanet.veins_inet.AodvCar attacker_car=networkprojectvanet.replay.replay_attack.AttackerAodvReplayCar"
*.manager.moduleName = "normal_car=normal_car slow_car=normal_car attacker_car=attacker_car"
*.manager.moduleDisplayString = "normal_car='i=veins/node/car;is=vs' attacker_car='i=veins/node/car,red;is=vs'"
**.routing.debug = false

[Config S2_Attack_Medium_15pct]
description = "Replay attack - Medium 15%"
*.manager.launchConfig = xmldoc("arcavacatamap_medium_15pct.launchd.xml")
*.manager.moduleType = "normal_car=networkprojectvanet.veins_inet.AodvCar slow_car=networkprojectvanet.veins_inet.AodvCar attacker_car=networkprojectvanet.replay.replay_attack.AttackerAodvReplayCar"
*.manager.moduleName = "normal_car=normal_car slow_car=normal_car attacker_car=attacker_car"
*.manager.moduleDisplayString = "normal_car='i=veins/node/car;is=vs' attacker_car='i=veins/node/car,red;is=vs'"
**.routing.debug = false

[Config S2_Attack_Medium_30pct]
description = "Replay attack - Medium 30%"
*.manager.launchConfig = xmldoc("arcavacatamap_medium_30pct.launchd.xml")
*.manager.moduleType = "normal_car=networkprojectvanet.veins_inet.AodvCar slow_car=networkprojectvanet.veins_inet.AodvCar attacker_car=networkprojectvanet.replay.replay_attack.AttackerAodvReplayCar"
*.manager.moduleName = "normal_car=normal_car slow_car=normal_car attacker_car=attacker_car"
*.manager.moduleDisplayString = "normal_car='i=veins/node/car;is=vs' attacker_car='i=veins/node/car,red;is=vs'"
**.routing.debug = false

[Config S2_Attack_Medium_40pct]
description = "Replay attack - Medium 40%"
*.manager.launchConfig = xmldoc("arcavacatamap_medium_40pct.launchd.xml")
*.manager.moduleType = "normal_car=networkprojectvanet.veins_inet.AodvCar slow_car=networkprojectvanet.veins_inet.AodvCar attacker_car=networkprojectvanet.replay.replay_attack.AttackerAodvReplayCar"
*.manager.moduleName = "normal_car=normal_car slow_car=normal_car attacker_car=attacker_car"
*.manager.moduleDisplayString = "normal_car='i=veins/node/car;is=vs' attacker_car='i=veins/node/car,red;is=vs'"
**.routing.debug = false

[Config S2_Attack_Medium_50pct]
description = "Replay attack - Medium 50%"
*.manager.launchConfig = xmldoc("arcavacatamap_medium_50pct.launchd.xml")
*.manager.moduleType = "normal_car=networkprojectvanet.veins_inet.AodvCar slow_car=networkprojectvanet.veins_inet.AodvCar attacker_car=networkprojectvanet.replay.replay_attack.AttackerAodvReplayCar"
*.manager.moduleName = "normal_car=normal_car slow_car=normal_car attacker_car=attacker_car"
*.manager.moduleDisplayString = "normal_car='i=veins/node/car;is=vs' attacker_car='i=veins/node/car,red;is=vs'"
**.routing.debug = false

[Config S2_Attack_Medium_60pct]
description = "Replay attack - Medium 60%"
*.manager.launchConfig = xmldoc("arcavacatamap_medium_60pct.launchd.xml")
*.manager.moduleType = "normal_car=networkprojectvanet.veins_inet.AodvCar slow_car=networkprojectvanet.veins_inet.AodvCar attacker_car=networkprojectvanet.replay.replay_attack.AttackerAodvReplayCar"
*.manager.moduleName = "normal_car=normal_car slow_car=normal_car attacker_car=attacker_car"
*.manager.moduleDisplayString = "normal_car='i=veins/node/car;is=vs' attacker_car='i=veins/node/car,red;is=vs'"
**.routing.debug = false

# ============================================================
# SCENARIO 3 — ATTACCO + MITIGAZIONE RSA
# ============================================================
[Config S3_RSA_Medium_8pct]
description = "Replay attack + mitigazione RSA - Medium 8%"
*.manager.launchConfig = xmldoc("arcavacatamap_medium_8pct.launchd.xml")
*.manager.moduleType = "normal_car=networkprojectvanet.replay.replay_mitigation_rsa.map_table.RsaAodvCar slow_car=networkprojectvanet.replay.replay_mitigation_rsa.map_table.RsaAodvCar attacker_car=networkprojectvanet.replay.replay_attack.AttackerAodvReplayCar"
*.manager.moduleName = "normal_car=normal_car slow_car=normal_car attacker_car=attacker_car"
*.manager.moduleDisplayString = "normal_car='i=veins/node/car;is=vs' attacker_car='i=veins/node/car,red;is=vs'"
*.normal_car[*].routing.pubKeyMapJson = "/home/giada/NetworkProjectVanet/src/replay/replay_mitigation_rsa/keys/pubkeys.json"
*.normal_car[*].routing.freshnessWindow = 2s
*.normal_car[*].routing.entryTimeout = 30s
*.normal_car[*].routing.gcInterval = 10s
*.normal_car[*].routing.maxCacheSize = 1000
**.routing.debug = false
*.normal_car[*].routing.attackerNodeIds = "node0 node12 node25 node37"


[Config S3_RSA_Medium_15pct]
description = "Replay attack + mitigazione RSA - Medium 15%"
*.manager.launchConfig = xmldoc("arcavacatamap_medium_15pct.launchd.xml")
*.manager.moduleType = "normal_car=networkprojectvanet.replay.replay_mitigation_rsa.map_table.RsaAodvCar slow_car=networkprojectvanet.replay.replay_mitigation_rsa.map_table.RsaAodvCar attacker_car=networkprojectvanet.replay.replay_attack.AttackerAodvReplayCar"
*.manager.moduleName = "normal_car=normal_car slow_car=normal_car attacker_car=attacker_car"
*.manager.moduleDisplayString = "normal_car='i=veins/node/car;is=vs' attacker_car='i=veins/node/car,red;is=vs'"
*.normal_car[*].routing.pubKeyMapJson = "/home/giada/NetworkProjectVanet/src/replay/replay_mitigation_rsa/keys/pubkeys.json"
*.normal_car[*].routing.freshnessWindow = 2s
*.normal_car[*].routing.entryTimeout = 30s
*.normal_car[*].routing.gcInterval = 10s
*.normal_car[*].routing.maxCacheSize = 1000
**.routing.debug = false
*.normal_car[*].routing.attackerNodeIds = "node0 node6 node12 node18 node25 node31 node37 node43"


[Config S3_RSA_Medium_30pct]
description = "Replay attack + mitigazione RSA - Medium 30%"
*.manager.launchConfig = xmldoc("arcavacatamap_medium_30pct.launchd.xml")
*.manager.moduleType = "normal_car=networkprojectvanet.replay.replay_mitigation_rsa.map_table.RsaAodvCar slow_car=networkprojectvanet.replay.replay_mitigation_rsa.map_table.RsaAodvCar attacker_car=networkprojectvanet.replay.replay_attack.AttackerAodvReplayCar"
*.manager.moduleName = "normal_car=normal_car slow_car=normal_car attacker_car=attacker_car"
*.manager.moduleDisplayString = "normal_car='i=veins/node/car;is=vs' attacker_car='i=veins/node/car,red;is=vs'"
*.normal_car[*].routing.pubKeyMapJson = "/home/giada/NetworkProjectVanet/src/replay/replay_mitigation_rsa/keys/pubkeys.json"
*.normal_car[*].routing.freshnessWindow = 2s
*.normal_car[*].routing.entryTimeout = 30s
*.normal_car[*].routing.gcInterval = 10s
*.normal_car[*].routing.maxCacheSize = 1000
**.routing.debug = false
*.normal_car[*].routing.attackerNodeIds = "node0 node3 node6 node10 node13 node16 node20 node23 node26 node30 node33 node36 node40 node43 node46"


[Config S3_RSA_Medium_40pct]
description = "Replay attack + mitigazione RSA - Medium 40%"
*.manager.launchConfig = xmldoc("arcavacatamap_medium_40pct.launchd.xml")
*.manager.moduleType = "normal_car=networkprojectvanet.replay.replay_mitigation_rsa.map_table.RsaAodvCar slow_car=networkprojectvanet.replay.replay_mitigation_rsa.map_table.RsaAodvCar attacker_car=networkprojectvanet.replay.replay_attack.AttackerAodvReplayCar"
*.manager.moduleName = "normal_car=normal_car slow_car=normal_car attacker_car=attacker_car"
*.manager.moduleDisplayString = "normal_car='i=veins/node/car;is=vs' attacker_car='i=veins/node/car,red;is=vs'"
*.normal_car[*].routing.pubKeyMapJson = "/home/giada/NetworkProjectVanet/src/replay/replay_mitigation_rsa/keys/pubkeys.json"
*.normal_car[*].routing.freshnessWindow = 2s
*.normal_car[*].routing.entryTimeout = 30s
*.normal_car[*].routing.gcInterval = 10s
*.normal_car[*].routing.maxCacheSize = 1000
**.routing.debug = false
*.normal_car[*].routing.attackerNodeIds = "node0 node2 node5 node7 node10 node12 node15 node17 node20 node22 node25 node27 node30 node32 node35 node37 node40 node42 node45 node47"


[Config S3_RSA_Medium_50pct]
description = "Replay attack + mitigazione RSA - Medium 50%"
*.manager.launchConfig = xmldoc("arcavacatamap_medium_50pct.launchd.xml")
*.manager.moduleType = "normal_car=networkprojectvanet.replay.replay_mitigation_rsa.map_table.RsaAodvCar slow_car=networkprojectvanet.replay.replay_mitigation_rsa.map_table.RsaAodvCar attacker_car=networkprojectvanet.replay.replay_attack.AttackerAodvReplayCar"
*.manager.moduleName = "normal_car=normal_car slow_car=normal_car attacker_car=attacker_car"
*.manager.moduleDisplayString = "normal_car='i=veins/node/car;is=vs' attacker_car='i=veins/node/car,red;is=vs'"
*.normal_car[*].routing.pubKeyMapJson = "/home/giada/NetworkProjectVanet/src/replay/replay_mitigation_rsa/keys/pubkeys.json"
*.normal_car[*].routing.freshnessWindow = 2s
*.normal_car[*].routing.entryTimeout = 30s
*.normal_car[*].routing.gcInterval = 10s
*.normal_car[*].routing.maxCacheSize = 1000
**.routing.debug = false
*.normal_car[*].routing.attackerNodeIds = "node0 node2 node4 node6 node8 node10 node12 node14 node16 node18 node20 node22 node24 node26 node28 node30 node32 node34 node36 node38 node40 node42 node44 node46 node48"


[Config S3_RSA_Medium_60pct]
description = "Replay attack + mitigazione RSA - Medium 60%"
*.manager.launchConfig = xmldoc("arcavacatamap_medium_60pct.launchd.xml")
*.manager.moduleType = "normal_car=networkprojectvanet.replay.replay_mitigation_rsa.map_table.RsaAodvCar slow_car=networkprojectvanet.replay.replay_mitigation_rsa.map_table.RsaAodvCar attacker_car=networkprojectvanet.replay.replay_attack.AttackerAodvReplayCar"
*.manager.moduleName = "normal_car=normal_car slow_car=normal_car attacker_car=attacker_car"
*.manager.moduleDisplayString = "normal_car='i=veins/node/car;is=vs' attacker_car='i=veins/node/car,red;is=vs'"
*.normal_car[*].routing.pubKeyMapJson = "/home/giada/NetworkProjectVanet/src/replay/replay_mitigation_rsa/keys/pubkeys.json"
*.normal_car[*].routing.freshnessWindow = 2s
*.normal_car[*].routing.entryTimeout = 30s
*.normal_car[*].routing.gcInterval = 10s
*.normal_car[*].routing.maxCacheSize = 1000
**.routing.debug = false
*.normal_car[*].routing.attackerNodeIds = "node0 node1 node3 node5 node6 node8 node10 node11 node13 node15 node16 node18 node20 node21 node23 node25 node26 node28 node30 node31 node33 node35 node36 node38 node40 node41 node43 node45 node46 node48"


# ============================================================
# SCENARIO 4 — ATTACCO + MITIGAZIONE ECDSA
# ============================================================
[Config S4_ECDSA_Medium_8pct]
description = "Replay attack + mitigazione ECDSA - Medium 8%"
*.manager.launchConfig = xmldoc("arcavacatamap_medium_8pct.launchd.xml")
*.manager.moduleType = "normal_car=networkprojectvanet.replay.replay_mitigation_ecdsa.map_table.EcdsaAodvCar slow_car=networkprojectvanet.replay.replay_mitigation_ecdsa.map_table.EcdsaAodvCar attacker_car=networkprojectvanet.replay.replay_attack.AttackerAodvReplayCar"
*.manager.moduleName = "normal_car=normal_car slow_car=normal_car attacker_car=attacker_car"
*.manager.moduleDisplayString = "normal_car='i=veins/node/car;is=vs' attacker_car='i=veins/node/car,red;is=vs'"
*.normal_car[*].routing.ecdsaPubKeyMapJson = "/home/giada/NetworkProjectVanet/src/replay/replay_mitigation_ecdsa/keys/pubkeys_ecdsa.json"
*.normal_car[*].routing.freshnessWindow = 2s
*.normal_car[*].routing.entryTimeout = 30s
*.normal_car[*].routing.gcInterval = 10s
*.normal_car[*].routing.maxCacheSize = 1000
**.routing.debug = false
*.normal_car[*].routing.attackerNodeIds = "node0 node12 node25 node37"


[Config S4_ECDSA_Medium_15pct]
description = "Replay attack + mitigazione ECDSA - Medium 15%"
*.manager.launchConfig = xmldoc("arcavacatamap_medium_15pct.launchd.xml")
*.manager.moduleType = "normal_car=networkprojectvanet.replay.replay_mitigation_ecdsa.map_table.EcdsaAodvCar slow_car=networkprojectvanet.replay.replay_mitigation_ecdsa.map_table.EcdsaAodvCar attacker_car=networkprojectvanet.replay.replay_attack.AttackerAodvReplayCar"
*.manager.moduleName = "normal_car=normal_car slow_car=normal_car attacker_car=attacker_car"
*.manager.moduleDisplayString = "normal_car='i=veins/node/car;is=vs' attacker_car='i=veins/node/car,red;is=vs'"
*.normal_car[*].routing.ecdsaPubKeyMapJson = "/home/giada/NetworkProjectVanet/src/replay/replay_mitigation_ecdsa/keys/pubkeys_ecdsa.json"
*.normal_car[*].routing.freshnessWindow = 2s
*.normal_car[*].routing.entryTimeout = 30s
*.normal_car[*].routing.gcInterval = 10s
*.normal_car[*].routing.maxCacheSize = 1000
**.routing.debug = false
*.normal_car[*].routing.attackerNodeIds = "node0 node6 node12 node18 node25 node31 node37 node43"


[Config S4_ECDSA_Medium_30pct]
description = "Replay attack + mitigazione ECDSA - Medium 30%"
*.manager.launchConfig = xmldoc("arcavacatamap_medium_30pct.launchd.xml")
*.manager.moduleType = "normal_car=networkprojectvanet.replay.replay_mitigation_ecdsa.map_table.EcdsaAodvCar slow_car=networkprojectvanet.replay.replay_mitigation_ecdsa.map_table.EcdsaAodvCar attacker_car=networkprojectvanet.replay.replay_attack.AttackerAodvReplayCar"
*.manager.moduleName = "normal_car=normal_car slow_car=normal_car attacker_car=attacker_car"
*.manager.moduleDisplayString = "normal_car='i=veins/node/car;is=vs' attacker_car='i=veins/node/car,red;is=vs'"
*.normal_car[*].routing.ecdsaPubKeyMapJson = "/home/giada/NetworkProjectVanet/src/replay/replay_mitigation_ecdsa/keys/pubkeys_ecdsa.json"
*.normal_car[*].routing.freshnessWindow = 2s
*.normal_car[*].routing.entryTimeout = 30s
*.normal_car[*].routing.gcInterval = 10s
*.normal_car[*].routing.maxCacheSize = 1000
**.routing.debug = false
*.normal_car[*].routing.attackerNodeIds = "node0 node3 node6 node10 node13 node16 node20 node23 node26 node30 node33 node36 node40 node43 node46"


[Config S4_ECDSA_Medium_40pct]
description = "Replay attack + mitigazione ECDSA - Medium 40%"
*.manager.launchConfig = xmldoc("arcavacatamap_medium_40pct.launchd.xml")
*.manager.moduleType = "normal_car=networkprojectvanet.replay.replay_mitigation_ecdsa.map_table.EcdsaAodvCar slow_car=networkprojectvanet.replay.replay_mitigation_ecdsa.map_table.EcdsaAodvCar attacker_car=networkprojectvanet.replay.replay_attack.AttackerAodvReplayCar"
*.manager.moduleName = "normal_car=normal_car slow_car=normal_car attacker_car=attacker_car"
*.manager.moduleDisplayString = "normal_car='i=veins/node/car;is=vs' attacker_car='i=veins/node/car,red;is=vs'"
*.normal_car[*].routing.ecdsaPubKeyMapJson = "/home/giada/NetworkProjectVanet/src/replay/replay_mitigation_ecdsa/keys/pubkeys_ecdsa.json"
*.normal_car[*].routing.freshnessWindow = 2s
*.normal_car[*].routing.entryTimeout = 30s
*.normal_car[*].routing.gcInterval = 10s
*.normal_car[*].routing.maxCacheSize = 1000
**.routing.debug = false
*.normal_car[*].routing.attackerNodeIds = "node0 node2 node5 node7 node10 node12 node15 node17 node20 node22 node25 node27 node30 node32 node35 node37 node40 node42 node45 node47"


[Config S4_ECDSA_Medium_50pct]
description = "Replay attack + mitigazione ECDSA - Medium 50%"
*.manager.launchConfig = xmldoc("arcavacatamap_medium_50pct.launchd.xml")
*.manager.moduleType = "normal_car=networkprojectvanet.replay.replay_mitigation_ecdsa.map_table.EcdsaAodvCar slow_car=networkprojectvanet.replay.replay_mitigation_ecdsa.map_table.EcdsaAodvCar attacker_car=networkprojectvanet.replay.replay_attack.AttackerAodvReplayCar"
*.manager.moduleName = "normal_car=normal_car slow_car=normal_car attacker_car=attacker_car"
*.manager.moduleDisplayString = "normal_car='i=veins/node/car;is=vs' attacker_car='i=veins/node/car,red;is=vs'"
*.normal_car[*].routing.ecdsaPubKeyMapJson = "/home/giada/NetworkProjectVanet/src/replay/replay_mitigation_ecdsa/keys/pubkeys_ecdsa.json"
*.normal_car[*].routing.freshnessWindow = 2s
*.normal_car[*].routing.entryTimeout = 30s
*.normal_car[*].routing.gcInterval = 10s
*.normal_car[*].routing.maxCacheSize = 1000
**.routing.debug = false
*.normal_car[*].routing.attackerNodeIds = "node0 node2 node4 node6 node8 node10 node12 node14 node16 node18 node20 node22 node24 node26 node28 node30 node32 node34 node36 node38 node40 node42 node44 node46 node48"


[Config S4_ECDSA_Medium_60pct]
description = "Replay attack + mitigazione ECDSA - Medium 60%"
*.manager.launchConfig = xmldoc("arcavacatamap_medium_60pct.launchd.xml")
*.manager.moduleType = "normal_car=networkprojectvanet.replay.replay_mitigation_ecdsa.map_table.EcdsaAodvCar slow_car=networkprojectvanet.replay.replay_mitigation_ecdsa.map_table.EcdsaAodvCar attacker_car=networkprojectvanet.replay.replay_attack.AttackerAodvReplayCar"
*.manager.moduleName = "normal_car=normal_car slow_car=normal_car attacker_car=attacker_car"
*.manager.moduleDisplayString = "normal_car='i=veins/node/car;is=vs' attacker_car='i=veins/node/car,red;is=vs'"
*.normal_car[*].routing.ecdsaPubKeyMapJson = "/home/giada/NetworkProjectVanet/src/replay/replay_mitigation_ecdsa/keys/pubkeys_ecdsa.json"
*.normal_car[*].routing.freshnessWindow = 2s
*.normal_car[*].routing.entryTimeout = 30s
*.normal_car[*].routing.gcInterval = 10s
*.normal_car[*].routing.maxCacheSize = 1000
**.routing.debug = false
*.normal_car[*].routing.attackerNodeIds = "node0 node1 node3 node5 node6 node8 node10 node11 node13 node15 node16 node18 node20 node21 node23 node25 node26 node28 node30 node31 node33 node35 node36 node38 node40 node41 node43 node45 node46 node48"


# ============================================================
# SCENARIO 5 — RSA SENZA ATTACCO
# ============================================================
[Config S5_RSA_NoAttack_Medium]
description = "Mitigazione RSA senza attacco - Medium"
*.manager.launchConfig = xmldoc("arcavacatamap_medium_noattack.launchd.xml")
*.manager.moduleType = "normal_car=networkprojectvanet.replay.replay_mitigation_rsa.map_table.RsaAodvCar slow_car=networkprojectvanet.replay.replay_mitigation_rsa.map_table.RsaAodvCar attacker_car=networkprojectvanet.replay.replay_mitigation_rsa.map_table.RsaAodvCar"
*.manager.moduleName = "normal_car=normal_car slow_car=normal_car attacker_car=normal_car"
*.manager.moduleDisplayString = "normal_car='i=veins/node/car;is=vs'"
*.normal_car[*].routing.pubKeyMapJson = "/home/giada/NetworkProjectVanet/src/replay/replay_mitigation_rsa/keys/pubkeys.json"
*.normal_car[*].routing.freshnessWindow = 2s
*.normal_car[*].routing.entryTimeout = 30s
*.normal_car[*].routing.gcInterval = 10s
*.normal_car[*].routing.maxCacheSize = 1000
**.routing.debug = false

# ============================================================
# SCENARIO 6 — ECDSA SENZA ATTACCO
# ============================================================
[Config S6_ECDSA_NoAttack_Medium]
description = "Mitigazione ECDSA senza attacco - Medium"
*.manager.launchConfig = xmldoc("arcavacatamap_medium_noattack.launchd.xml")
*.manager.moduleType = "normal_car=networkprojectvanet.replay.replay_mitigation_ecdsa.map_table.EcdsaAodvCar slow_car=networkprojectvanet.replay.replay_mitigation_ecdsa.map_table.EcdsaAodvCar attacker_car=networkprojectvanet.replay.replay_mitigation_ecdsa.map_table.EcdsaAodvCar"
*.manager.moduleName = "normal_car=normal_car slow_car=normal_car attacker_car=normal_car"
*.manager.moduleDisplayString = "normal_car='i=veins/node/car;is=vs'"
*.normal_car[*].routing.ecdsaPubKeyMapJson = "/home/giada/NetworkProjectVanet/src/replay/replay_mitigation_ecdsa/keys/pubkeys_ecdsa.json"
*.normal_car[*].routing.freshnessWindow = 2s
*.normal_car[*].routing.entryTimeout = 30s
*.normal_car[*].routing.gcInterval = 10s
*.normal_car[*].routing.maxCacheSize = 1000
**.routing.debug = false